@<TRIPOS>MOLECULE
53I
   67    70     1     0     0
SMALL
No Charge or Current Charge


@<TRIPOS>ATOM
      1 O30         12.8350   -31.2230    42.3130 o          1 53I      -0.588100
      2 C16         13.2740   -31.4800    41.1970 c          1 53I       0.623300
      3 N17         13.7650   -30.4210    40.3670 n          1 53I      -0.190800
      4 N18         14.0870   -30.5850    39.0230 n2         1 53I      -0.429300
      5 C19         15.1350   -30.0040    38.5180 ce         1 53I       0.392800
      6 C25         15.7250   -28.8100    39.1880 ca         1 53I      -0.166900
      7 C26         16.8760   -28.1770    38.6790 ca         1 53I      -0.080000
      8 C27         17.4060   -27.0520    39.3350 ca         1 53I      -0.112000
      9 C28         16.7890   -26.5580    40.4970 ca         1 53I      -0.095000
     10 C29         15.6390   -27.1870    41.0060 ca         1 53I      -0.095000
     11 C24         15.1060   -28.3150    40.3530 ca         1 53I      -0.068300
     12 C20         13.8480   -29.0200    40.8820 c6         1 53I       0.186200
     13 C21         12.5890   -28.2370    40.5190 c2         1 53I      -0.252200
     14 C22         11.8760   -27.4250    41.3250 c2         1 53I      -0.076400
     15 C23         12.1830   -27.1020    42.7810 c3         1 53I      -0.060400
     16 C37         10.6300   -26.7070    40.8390 c3         1 53I      -0.060400
     17 C15         13.2560   -32.9210    40.7610 ce         1 53I      -0.238200
     18 C14         13.8580   -33.5480    39.7010 cf         1 53I      -0.100200
     19 C13         13.8230   -34.9770    39.3040 ca         1 53I      -0.039800
     20 C10         12.7490   -35.8530    39.6120 ca         1 53I       0.091100
     21 O11         11.6470   -35.3670    40.2900 os         1 53I      -0.355100
     22 C12         10.3580   -35.3400    39.6510 c3         1 53I       0.147900
     23 C07         12.8010   -37.2150    39.2130 ca         1 53I       0.116100
     24 O08         11.7690   -38.0660    39.5750 os         1 53I      -0.336100
     25 C09         11.7480   -39.4600    39.2200 c3         1 53I       0.145900
     26 C06         13.9120   -37.6830    38.4760 ca         1 53I      -0.178000
     27 C05         14.9610   -36.8110    38.1390 ca         1 53I      -0.055300
     28 C04         16.1640   -37.3150    37.3470 c3         1 53I       0.046200
     29 C03         17.4220   -37.4730    38.2090 ca         1 53I      -0.309300
     30 C32         17.3290   -37.8000    39.5780 ca         1 53I       0.176900
     31 N33         18.4230   -37.9440    40.3500 nb         1 53I      -0.269000
     32 C34         19.6000   -37.7640    39.7390 ca         1 53I       0.392900
     33 N35         20.7040   -37.9060    40.5090 nv         1 53I      -1.048900
     34 N36         19.8180   -37.4630    38.4560 nb         1 53I      -0.325000
     35 C02         18.7250   -37.3210    37.7000 ca         1 53I       0.415900
     36 N01         18.9790   -37.0380    36.3990 nv         1 53I      -1.083900
     37 C31         14.9090   -35.4710    38.5540 ca         1 53I      -0.120000
     38 H1          15.5600   -30.3150    37.5610 h4         1 53I       0.036800
     39 H2          17.3580   -28.5550    37.7800 ha         1 53I       0.116000
     40 H3          18.2950   -26.5640    38.9420 ha         1 53I       0.117000
     41 H4          17.1990   -25.6860    41.0020 ha         1 53I       0.117000
     42 H5          15.1640   -26.7980    41.9030 ha         1 53I       0.121000
     43 H6          13.9570   -29.0750    41.9730 h1         1 53I       0.097700
     44 H7          12.2660   -28.3810    39.4880 ha         1 53I       0.176000
     45 H8          13.0980   -27.5730    43.1510 hc         1 53I       0.043367
     46 H9          12.3030   -26.0210    42.9230 hc         1 53I       0.043367
     47 H10         11.3650   -27.4300    43.4340 hc         1 53I       0.043367
     48 H11         10.7450   -25.6190    40.9150 hc         1 53I       0.043367
     49 H12         10.4060   -26.9410    39.7910 hc         1 53I       0.043367
     50 H13          9.7530   -26.9940    41.4320 hc         1 53I       0.043367
     51 H14         12.7000   -33.5370    41.4590 ha         1 53I       0.219000
     52 H15         14.4930   -32.9630    39.0420 ha         1 53I       0.177000
     53 H16          9.6190   -34.8650    40.3090 h1         1 53I       0.040367
     54 H17         10.4030   -34.7640    38.7180 h1         1 53I       0.040367
     55 H18         10.0000   -36.3490    39.4170 h1         1 53I       0.040367
     56 H19         10.8390   -39.9370    39.6090 h1         1 53I       0.043367
     57 H20         11.7580   -39.5860    38.1300 h1         1 53I       0.043367
     58 H21         12.6140   -39.9840    39.6450 h1         1 53I       0.043367
     59 H22         13.9780   -38.7200    38.1620 ha         1 53I       0.121000
     60 H23         16.3450   -36.6150    36.5230 hc         1 53I       0.043700
     61 H24         15.9290   -38.2750    36.8710 hc         1 53I       0.043700
     62 H25         16.3690   -37.9540    40.0700 h4         1 53I       0.028100
     63 H26         21.5910   -37.5690    40.1450 hn         1 53I       0.484000
     64 H27         20.5950   -37.9160    41.5210 hn         1 53I       0.484000
     65 H28         19.9330   -37.1540    36.0680 hn         1 53I       0.491500
     66 H29         18.2410   -37.1790    35.7160 hn         1 53I       0.491500
     67 H30         15.7350   -34.8100    38.3020 ha         1 53I       0.119000
@<TRIPOS>BOND
     1     1     2 2   
     2     2     3 1   
     3     2    17 1   
     4     3     4 1   
     5     3    12 1   
     6     4     5 2   
     7     5     6 1   
     8     5    38 1   
     9     6     7 ar  
    10     6    11 ar  
    11     7     8 ar  
    12     7    39 1   
    13     8     9 ar  
    14     8    40 1   
    15     9    10 ar  
    16     9    41 1   
    17    10    11 ar  
    18    10    42 1   
    19    11    12 1   
    20    12    13 1   
    21    12    43 1   
    22    13    14 2   
    23    13    44 1   
    24    14    15 1   
    25    14    16 1   
    26    15    45 1   
    27    15    46 1   
    28    15    47 1   
    29    16    48 1   
    30    16    49 1   
    31    16    50 1   
    32    17    18 2   
    33    17    51 1   
    34    18    19 1   
    35    18    52 1   
    36    19    20 ar  
    37    19    37 ar  
    38    20    21 1   
    39    20    23 ar  
    40    21    22 1   
    41    22    53 1   
    42    22    54 1   
    43    22    55 1   
    44    23    24 1   
    45    23    26 ar  
    46    24    25 1   
    47    25    56 1   
    48    25    57 1   
    49    25    58 1   
    50    26    27 ar  
    51    26    59 1   
    52    27    28 1   
    53    27    37 ar  
    54    28    29 1   
    55    28    60 1   
    56    28    61 1   
    57    29    30 ar  
    58    29    35 ar  
    59    30    31 ar  
    60    30    62 1   
    61    31    32 ar  
    62    32    33 1   
    63    32    34 ar  
    64    33    63 1   
    65    33    64 1   
    66    34    35 ar  
    67    35    36 1   
    68    36    65 1   
    69    36    66 1   
    70    37    67 1   
@<TRIPOS>SUBSTRUCTURE
     1 53I         1 TEMP              0 ****  ****    0 ROOT
