@<TRIPOS>MOLECULE
53J
   67    70     1     0     0
SMALL
abcg2


@<TRIPOS>ATOM
      1 C10         13.4520    39.5020    -1.5160 ca         1 53J       0.093100
      2 C12         13.7200    41.5870    -0.4300 c3         1 53J       0.147900
      3 C13         14.4570    38.9380    -2.3130 ca         1 53J      -0.040800
      4 C14         15.8900    39.0000    -2.0310 ce         1 53J      -0.097200
      5 C15         16.5240    39.5120    -0.9660 cf         1 53J      -0.238200
      6 C16         17.9850    39.6610    -0.8260 c          1 53J       0.623300
      7 C19         19.1280    36.7480    -2.4190 ce         1 53J       0.395800
      8 C02         11.3980    35.1070    -5.8480 ca         1 53J       0.416900
      9 C03         11.8980    35.9280    -4.8030 ca         1 53J      -0.309300
     10 C04         12.3580    37.3410    -5.0820 c3         1 53J       0.047200
     11 C05         12.7490    38.1180    -3.8520 ca         1 53J      -0.056300
     12 C06         11.7600    38.6860    -3.0480 ca         1 53J      -0.177000
     13 C07         12.1010    39.3700    -1.8850 ca         1 53J       0.114100
     14 O08         11.2000    39.9350    -1.0420 os         1 53J      -0.337100
     15 C09          9.8150    39.8460    -1.3740 c3         1 53J       0.145900
     16 O11         13.7560    40.1510    -0.3480 os         1 53J      -0.356100
     17 N17         18.8460    38.7140    -1.3310 n          1 53J      -0.193800
     18 N18         18.3650    37.4720    -1.6810 n2         1 53J      -0.423300
     19 C20         20.3120    38.9370    -1.2200 c6         1 53J       0.188200
     20 C21         20.7740    38.4460     0.1360 c2         1 53J      -0.250200
     21 C22         21.6460    37.5120     0.5270 c2         1 53J      -0.083400
     22 C23         22.5080    36.6200    -0.3230 c3         1 53J      -0.062400
     23 C24         20.9600    38.3530    -2.4420 ca         1 53J      -0.068300
     24 C25         20.3900    37.1950    -2.9780 ca         1 53J      -0.163900
     25 C26         21.0070    36.5420    -4.0480 ca         1 53J      -0.082000
     26 C27         22.1760    37.0590    -4.5890 ca         1 53J      -0.112000
     27 C28         22.7230    38.2330    -4.0730 ca         1 53J      -0.098000
     28 C29         22.1120    38.8820    -3.0040 ca         1 53J      -0.096000
     29 O30         18.4360    40.6670    -0.2700 o          1 53J      -0.599100
     30 C31         14.0750    38.2500    -3.4810 ca         1 53J      -0.119000
     31 C32         11.9310    35.3290    -3.5640 ca         1 53J       0.176900
     32 N33         11.5270    34.0730    -3.3110 nb         1 53J      -0.269000
     33 C34         11.0630    33.3960    -4.3670 ca         1 53J       0.391900
     34 N35         10.5880    32.1330    -4.1420 nv         1 53J      -1.047900
     35 N36         10.9820    33.8550    -5.6220 nb         1 53J      -0.325000
     36 C37         21.8420    37.2750     2.0040 c3         1 53J      -0.062400
     37 H1          13.9980    41.9580     0.5540 h1         1 53J       0.041367
     38 H2          14.4380    41.9400    -1.1730 h1         1 53J       0.041367
     39 H3          12.7180    41.9330    -0.6880 h1         1 53J       0.041367
     40 H4          16.4930    38.5650    -2.8170 ha         1 53J       0.177000
     41 H5          15.9790    39.9930    -0.1700 ha         1 53J       0.217000
     42 H6          18.7380    35.7710    -2.6850 h4         1 53J       0.037800
     43 H8          10.8790    34.9810    -7.8130 hn         1 53J       0.493500
     44 H9          11.5040    36.5160    -7.3470 hn         1 53J       0.493500
     45 H10         13.2050    37.3150    -5.7750 hc         1 53J       0.043700
     46 H11         11.5570    37.8800    -5.5990 hc         1 53J       0.043700
     47 H12         10.7230    38.5770    -3.3330 ha         1 53J       0.122000
     48 H13          9.2870    40.3660    -0.5790 h1         1 53J       0.043700
     49 H14          9.6080    40.3300    -2.3310 h1         1 53J       0.043700
     50 H15          9.4880    38.8040    -1.4130 h1         1 53J       0.043700
     51 H17         20.4360    40.0190    -1.2330 h1         1 53J       0.098700
     52 H18         20.2530    38.9800     0.9260 ha         1 53J       0.186000
     53 H21         22.4360    36.8040    -1.3870 hc         1 53J       0.042867
     54 H22         23.5540    36.7350    -0.0240 hc         1 53J       0.042867
     55 H23         22.2460    35.5750    -0.1360 hc         1 53J       0.042867
     56 H24         20.5630    35.6410    -4.4540 ha         1 53J       0.117000
     57 H25         22.6600    36.5540    -5.4150 ha         1 53J       0.117000
     58 H26         23.6300    38.6400    -4.5020 ha         1 53J       0.117000
     59 H27         22.5480    39.7830    -2.5900 ha         1 53J       0.123000
     60 H28         14.8500    37.8110    -4.0980 ha         1 53J       0.119000
     61 H29         12.3050    35.8840    -2.7110 h4         1 53J       0.028100
     62 H30         10.4950    31.5320    -4.9450 hn         1 53J       0.483000
     63 H31         10.8800    31.6880    -3.2870 hn         1 53J       0.483000
     64 H32         21.6240    36.2320     2.2540 hc         1 53J       0.042867
     65 H33         22.8850    37.4520     2.2850 hc         1 53J       0.042867
     66 H34         21.2040    37.9180     2.6100 hc         1 53J       0.042867
     67 N01         11.3440    35.5490    -7.1250 nv         1 53J      -1.085900
@<TRIPOS>BOND
     1     1     3 ar  
     2     1    13 ar  
     3     1    16 1   
     4     2    16 1   
     5     2    37 1   
     6     2    38 1   
     7     2    39 1   
     8     3     4 1   
     9     3    30 ar  
    10     4     5 2   
    11     4    40 1   
    12     5     6 1   
    13     5    41 1   
    14     6    17 1   
    15     6    29 2   
    16     7    18 2   
    17     7    24 1   
    18     7    42 1   
    19     8     9 ar  
    20     8    35 ar  
    21     8    67 1   
    22     9    10 1   
    23     9    31 ar  
    24    10    11 1   
    25    10    45 1   
    26    10    46 1   
    27    11    12 ar  
    28    11    30 ar  
    29    12    13 ar  
    30    12    47 1   
    31    13    14 1   
    32    14    15 1   
    33    15    48 1   
    34    15    49 1   
    35    15    50 1   
    36    17    18 1   
    37    17    19 1   
    38    19    20 1   
    39    19    23 1   
    40    19    51 1   
    41    20    21 2   
    42    20    52 1   
    43    21    22 1   
    44    21    36 1   
    45    22    53 1   
    46    22    54 1   
    47    22    55 1   
    48    23    24 ar  
    49    23    28 ar  
    50    24    25 ar  
    51    25    26 ar  
    52    25    56 1   
    53    26    27 ar  
    54    26    57 1   
    55    27    28 ar  
    56    27    58 1   
    57    28    59 1   
    58    30    60 1   
    59    31    32 ar  
    60    31    61 1   
    61    32    33 ar  
    62    33    34 1   
    63    33    35 ar  
    64    34    62 1   
    65    34    63 1   
    66    36    64 1   
    67    36    65 1   
    68    36    66 1   
    69    43    67 1   
    70    44    67 1   
@<TRIPOS>SUBSTRUCTURE
     1 53J         1 TEMP              0 ****  ****    0 ROOT
