@<TRIPOS>MOLECULE
53J
   67    70     1     0     0
SMALL
No Charge or Current Charge


@<TRIPOS>ATOM
      1 C10         13.4850    39.6620    -1.4750 ca         1 53J       0.093100
      2 C12         13.3790    41.0480     0.6220 c3         1 53J       0.147900
      3 C13         14.3550    38.9610    -2.3520 ca         1 53J      -0.040800
      4 C14         15.8360    38.9340    -2.1630 ce         1 53J      -0.097200
      5 C15         16.6620    39.9720    -1.8200 cf         1 53J      -0.238200
      6 C16         18.1490    40.0040    -1.6160 c          1 53J       0.623300
      7 C19         19.3500    37.4530    -3.7990 ce         1 53J       0.395800
      8 C02         12.0550    34.9720    -5.6850 ca         1 53J       0.416900
      9 C03         11.9310    35.9070    -4.6420 ca         1 53J      -0.309300
     10 C04         11.9090    37.4220    -4.8750 c3         1 53J       0.047200
     11 C05         12.4510    38.2160    -3.6900 ca         1 53J      -0.056300
     12 C06         11.5820    38.9170    -2.8400 ca         1 53J      -0.177000
     13 C07         12.0750    39.6410    -1.7280 ca         1 53J       0.114100
     14 O08         11.1940    40.3180    -0.8980 os         1 53J      -0.337100
     15 C09          9.7690    40.3290    -1.0980 c3         1 53J       0.145900
     16 O11         14.0810    40.3070    -0.3920 os         1 53J      -0.356100
     17 N17         19.0250    38.9380    -2.0020 n          1 53J      -0.193800
     18 N18         18.6120    37.8930    -2.8240 n2         1 53J      -0.423300
     19 C20         20.4850    39.0030    -1.6580 c6         1 53J       0.188200
     20 C21         20.7510    38.6500    -0.1940 c2         1 53J      -0.250200
     21 C22         20.7000    37.4360     0.3930 c2         1 53J      -0.083400
     22 C23         20.3710    36.1160    -0.2870 c3         1 53J      -0.062400
     23 C24         21.4020    38.2720    -2.6520 ca         1 53J      -0.068300
     24 C25         20.8310    37.5530    -3.7180 ca         1 53J      -0.163900
     25 C26         21.6600    36.8940    -4.6480 ca         1 53J      -0.082000
     26 C27         23.0570    36.9680    -4.5200 ca         1 53J      -0.112000
     27 C28         23.6290    37.6940    -3.4610 ca         1 53J      -0.098000
     28 C29         22.8030    38.3460    -2.5290 ca         1 53J      -0.096000
     29 O30         18.6150    41.0130    -1.0970 o          1 53J      -0.599100
     30 C31         13.8290    38.2400    -3.4380 ca         1 53J      -0.119000
     31 C32         11.8060    35.3690    -3.3430 ca         1 53J       0.176900
     32 N33         11.8210    34.0410    -3.1200 nb         1 53J      -0.269000
     33 C34         11.9550    33.2650    -4.2030 ca         1 53J       0.391900
     34 N35         11.9720    31.9300    -3.9870 nv         1 53J      -1.047900
     35 N36         12.0700    33.6520    -5.4760 nb         1 53J      -0.325000
     36 C37         20.9790    37.2500     1.8730 c3         1 53J      -0.062400
     37 H1          14.0900    41.4460     1.3570 h1         1 53J       0.041367
     38 H2          12.8400    41.8980     0.1860 h1         1 53J       0.041367
     39 H3          12.6700    40.4040     1.1590 h1         1 53J       0.041367
     40 H4          16.2490    37.9440    -2.3370 ha         1 53J       0.177000
     41 H5          16.1930    40.9350    -1.6310 ha         1 53J       0.217000
     42 H6          18.9270    36.8520    -4.6070 h4         1 53J       0.037800
     43 H8          12.0240    34.6080    -7.6890 hn         1 53J       0.493500
     44 H9          11.8820    36.2740    -7.2550 hn         1 53J       0.493500
     45 H10         12.5030    37.6840    -5.7590 hc         1 53J       0.043700
     46 H11         10.8840    37.7380    -5.1060 hc         1 53J       0.043700
     47 H12         10.5190    38.8790    -3.0550 ha         1 53J       0.122000
     48 H13          9.2810    40.9270    -0.3180 h1         1 53J       0.043700
     49 H14          9.5140    40.7690    -2.0710 h1         1 53J       0.043700
     50 H15          9.3590    39.3120    -1.0500 h1         1 53J       0.043700
     51 H17         20.7770    40.0580    -1.7700 h1         1 53J       0.098700
     52 H18         20.9990    39.5180     0.4170 ha         1 53J       0.186000
     53 H21         20.1880    36.2180    -1.3580 hc         1 53J       0.042867
     54 H22         21.1940    35.4010    -0.1710 hc         1 53J       0.042867
     55 H23         19.4740    35.6640     0.1520 hc         1 53J       0.042867
     56 H24         21.2230    36.3230    -5.4650 ha         1 53J       0.117000
     57 H25         23.6970    36.4610    -5.2390 ha         1 53J       0.117000
     58 H26         24.7110    37.7510    -3.3620 ha         1 53J       0.117000
     59 H27         23.2510    38.9080    -1.7120 ha         1 53J       0.123000
     60 H28         14.5020    37.6970    -4.0980 ha         1 53J       0.119000
     61 H29         11.6900    36.0020    -2.4640 h4         1 53J       0.028100
     62 H30         12.2840    31.3230    -4.7410 hn         1 53J       0.483000
     63 H31         12.1060    31.5910    -3.0370 hn         1 53J       0.483000
     64 H32         20.1120    36.8190     2.3880 hc         1 53J       0.042867
     65 H33         21.8310    36.5770     2.0330 hc         1 53J       0.042867
     66 H34         21.2150    38.1990     2.3680 hc         1 53J       0.042867
     67 N01         12.1520    35.3330    -6.9880 nv         1 53J      -1.085900
@<TRIPOS>BOND
     1     1     3 ar  
     2     1    13 ar  
     3     1    16 1   
     4     2    16 1   
     5     2    37 1   
     6     2    38 1   
     7     2    39 1   
     8     3     4 1   
     9     3    30 ar  
    10     4     5 2   
    11     4    40 1   
    12     5     6 1   
    13     5    41 1   
    14     6    17 1   
    15     6    29 2   
    16     7    18 2   
    17     7    24 1   
    18     7    42 1   
    19     8     9 ar  
    20     8    35 ar  
    21     8    67 1   
    22     9    10 1   
    23     9    31 ar  
    24    10    11 1   
    25    10    45 1   
    26    10    46 1   
    27    11    12 ar  
    28    11    30 ar  
    29    12    13 ar  
    30    12    47 1   
    31    13    14 1   
    32    14    15 1   
    33    15    48 1   
    34    15    49 1   
    35    15    50 1   
    36    17    18 1   
    37    17    19 1   
    38    19    20 1   
    39    19    23 1   
    40    19    51 1   
    41    20    21 2   
    42    20    52 1   
    43    21    22 1   
    44    21    36 1   
    45    22    53 1   
    46    22    54 1   
    47    22    55 1   
    48    23    24 ar  
    49    23    28 ar  
    50    24    25 ar  
    51    25    26 ar  
    52    25    56 1   
    53    26    27 ar  
    54    26    57 1   
    55    27    28 ar  
    56    27    58 1   
    57    28    59 1   
    58    30    60 1   
    59    31    32 ar  
    60    31    61 1   
    61    32    33 ar  
    62    33    34 1   
    63    33    35 ar  
    64    34    62 1   
    65    34    63 1   
    66    36    64 1   
    67    36    65 1   
    68    36    66 1   
    69    43    67 1   
    70    44    67 1   
@<TRIPOS>SUBSTRUCTURE
     1 53J         1 TEMP              0 ****  ****    0 ROOT
