@<TRIPOS>MOLECULE
53K
   46    49     1     0     0
SMALL
abcg2


@<TRIPOS>ATOM
      1 N1          -2.2830    -1.9130     0.4160 na         1 53K       0.125800
      2 N3          -2.5820    -1.6600     1.6780 nc         1 53K      -0.208800
      3 C4           7.1190    -0.0980     0.2570 ca         1 53K      -0.135000
      4 C5           6.2200    -1.1470     0.1600 ca         1 53K      -0.086000
      5 C6           4.9170    -0.9140    -0.2630 ca         1 53K      -0.171000
      6 C7           4.5230     0.3770    -0.5850 ca         1 53K       0.135100
      7 C8           2.2410    -0.1830    -0.7620 ca         1 53K       0.083100
      8 C10          0.5710    -1.7380    -1.5120 ca         1 53K      -0.123000
      9 C13         -3.1150    -1.2700    -0.4150 cc         1 53K      -0.195000
     10 C15         -5.1020     0.2730     0.0990 ca         1 53K      -0.107500
     11 C17         -6.6560     1.1820    -1.5140 ca         1 53K      -0.113500
     12 C20         -5.7130     1.0420     1.0910 ca         1 53K      -0.092000
     13 C21          0.6690    -1.1000     0.8040 ca         1 53K      -0.174000
     14 C22          1.7500    -0.2700     0.5470 ca         1 53K       0.125100
     15 O2           2.3650     0.4650     1.4860 oh         1 53K      -0.511100
     16 O1           3.2680     0.6740    -1.0390 os         1 53K      -0.242200
     17 C3           6.7070     1.1880    -0.0740 ca         1 53K      -0.086000
     18 C2           5.4090     1.4540    -0.4960 ca         1 53K      -0.088300
     19 C1           4.9640     2.8440    -0.8390 c3         1 53K      -0.036800
     20 C11          0.0760    -1.8330    -0.2210 ca         1 53K      -0.088300
     21 C9           1.6590    -0.9140    -1.7780 ca         1 53K      -0.085000
     22 C12         -1.1140    -2.7050     0.0770 c3         1 53K       0.126900
     23 N2          -3.5980    -0.8720     1.6930 nd         1 53K      -0.354000
     24 C14         -3.9740    -0.5960     0.4230 cd         1 53K       0.260500
     25 C19         -6.7810     1.8700     0.7820 ca         1 53K      -0.113500
     26 C18         -7.2570     1.9450    -0.5200 ca         1 53K      -0.106000
     27 C16         -5.5890     0.3520    -1.2060 ca         1 53K      -0.092000
     28 H2           6.5240    -2.1550     0.4110 ha         1 53K       0.111000
     29 H3           4.2230    -1.7410    -0.3430 ha         1 53K       0.119000
     30 H4           0.1160    -2.3050    -2.3140 ha         1 53K       0.118000
     31 H5          -3.0330    -1.3350    -1.4860 h4         1 53K       0.169000
     32 H6          -7.0200     1.2300    -2.5310 ha         1 53K       0.112500
     33 H7          -5.3480     0.9950     2.1090 ha         1 53K       0.118500
     34 H8           0.2810    -1.1700     1.8150 ha         1 53K       0.133000
     35 H9           1.9600     0.3180     2.3480 ho         1 53K       0.471000
     36 H10          7.4080     2.0100     0.0020 ha         1 53K       0.113000
     37 H11          4.6470     2.9260    -1.8800 hc         1 53K       0.044367
     38 H12          4.1200     3.1590    -0.2230 hc         1 53K       0.044367
     39 H13          5.7730     3.5560    -0.6830 hc         1 53K       0.044367
     40 H14          2.0530    -0.8320    -2.7820 ha         1 53K       0.135000
     41 H15         -0.9260    -3.3670     0.9220 h1         1 53K       0.078700
     42 H16         -1.3630    -3.3270    -0.7810 h1         1 53K       0.078700
     43 H17         -7.2410     2.4630     1.5620 ha         1 53K       0.112500
     44 H18         -8.0920     2.5910    -0.7590 ha         1 53K       0.112000
     45 H19         -5.1400    -0.2440    -1.9910 ha         1 53K       0.118500
     46 H1           8.1350    -0.2740     0.5860 ha         1 53K       0.114000
@<TRIPOS>BOND
     1     1     2 1   
     2     1     9 1   
     3     1    22 1   
     4     2    23 2   
     5     3     4 ar  
     6     3    17 ar  
     7     3    46 1   
     8     4     5 ar  
     9     4    28 1   
    10     5     6 ar  
    11     5    29 1   
    12     6    16 1   
    13     6    18 ar  
    14     7    14 ar  
    15     7    16 1   
    16     7    21 ar  
    17     8    20 ar  
    18     8    21 ar  
    19     8    30 1   
    20     9    24 2   
    21     9    31 1   
    22    10    12 ar  
    23    10    24 1   
    24    10    27 ar  
    25    11    26 ar  
    26    11    27 ar  
    27    11    32 1   
    28    12    25 ar  
    29    12    33 1   
    30    13    14 ar  
    31    13    20 ar  
    32    13    34 1   
    33    14    15 1   
    34    15    35 1   
    35    17    18 ar  
    36    17    36 1   
    37    18    19 1   
    38    19    37 1   
    39    19    38 1   
    40    19    39 1   
    41    20    22 1   
    42    21    40 1   
    43    22    41 1   
    44    22    42 1   
    45    23    24 1   
    46    25    26 ar  
    47    25    43 1   
    48    26    44 1   
    49    27    45 1   
@<TRIPOS>SUBSTRUCTURE
     1 53K         1 TEMP              0 ****  ****    0 ROOT
