@<TRIPOS>MOLECULE
53K
   46    49     1     0     0
SMALL
No Charge or Current Charge


@<TRIPOS>ATOM
      1 N1          -2.3360    -1.9830     0.2910 na         1 53K       0.125800
      2 N3          -2.7400    -2.0760     1.5890 nc         1 53K      -0.208800
      3 C4           7.0550     0.1440     0.8160 ca         1 53K      -0.135000
      4 C5           6.1640    -0.9420     0.8120 ca         1 53K      -0.086000
      5 C6           4.9590    -0.8560     0.0960 ca         1 53K      -0.171000
      6 C7           4.6380     0.3210    -0.6140 ca         1 53K       0.135100
      7 C8           2.3450    -0.3330    -1.0350 ca         1 53K       0.083100
      8 C10          0.7530    -2.0500    -1.7030 ca         1 53K      -0.123000
      9 C13         -3.1350    -1.1300    -0.4280 cc         1 53K      -0.195000
     10 C15         -5.1570     0.2570     0.2780 ca         1 53K      -0.107500
     11 C17         -6.4310     1.7350    -1.2010 ca         1 53K      -0.113500
     12 C20         -6.0230     0.6110     1.3380 ca         1 53K      -0.092000
     13 C21          0.5110    -0.9470     0.4520 ca         1 53K      -0.174000
     14 C22          1.6480    -0.1630     0.1860 ca         1 53K       0.125100
     15 O2           2.0560     0.7620     1.1110 oh         1 53K      -0.511100
     16 O1           3.4630     0.4150    -1.3340 os         1 53K      -0.242200
     17 C3           6.7440     1.3150     0.1040 ca         1 53K      -0.086000
     18 C2           5.5370     1.4100    -0.6180 ca         1 53K      -0.088300
     19 C1           5.2090     2.6840    -1.3880 c3         1 53K      -0.036800
     20 C11          0.0550    -1.8940    -0.4900 ca         1 53K      -0.088300
     21 C9           1.8900    -1.2710    -1.9760 ca         1 53K      -0.085000
     22 C12         -1.1800    -2.7490    -0.2050 c3         1 53K       0.126900
     23 N2          -3.7770    -1.2910     1.7120 nd         1 53K      -0.354000
     24 C14         -4.0460    -0.6950     0.4950 cd         1 53K       0.260500
     25 C19         -7.0780     1.5160     1.1290 ca         1 53K      -0.113500
     26 C18         -7.2830     2.0790    -0.1400 ca         1 53K      -0.106000
     27 C16         -5.3750     0.8300    -0.9950 ca         1 53K      -0.092000
     28 H2           6.4090    -1.8490     1.3610 ha         1 53K       0.111000
     29 H3           4.2820    -1.7060     0.0930 ha         1 53K       0.119000
     30 H4           0.4160    -2.7770    -2.4410 ha         1 53K       0.118000
     31 H5          -2.9920    -0.9120    -1.4760 h4         1 53K       0.169000
     32 H6          -6.5880     2.1700    -2.1860 ha         1 53K       0.112500
     33 H7          -5.8830     0.1880     2.3300 ha         1 53K       0.118500
     34 H8          -0.0230    -0.8220     1.3920 ha         1 53K       0.133000
     35 H9           1.4450     0.7300     1.8770 ho         1 53K       0.471000
     36 H10          7.4440     2.1470     0.1130 ha         1 53K       0.113000
     37 H11          5.0970     2.4770    -2.4590 hc         1 53K       0.044367
     38 H12          4.2700     3.1260    -1.0330 hc         1 53K       0.044367
     39 H13          5.9930     3.4420    -1.2780 hc         1 53K       0.044367
     40 H14          2.4230    -1.3960    -2.9150 ha         1 53K       0.135000
     41 H15         -0.9200    -3.5140     0.5370 h1         1 53K       0.078700
     42 H16         -1.4900    -3.2720    -1.1180 h1         1 53K       0.078700
     43 H17         -7.7370     1.7810     1.9530 ha         1 53K       0.112500
     44 H18         -8.1000     2.7790    -0.3010 ha         1 53K       0.112000
     45 H19         -4.7290     0.5800    -1.8320 ha         1 53K       0.118500
     46 H1           7.9890     0.0780     1.3700 ha         1 53K       0.114000
@<TRIPOS>BOND
     1     1     2 1   
     2     1     9 1   
     3     1    22 1   
     4     2    23 2   
     5     3     4 ar  
     6     3    17 ar  
     7     3    46 1   
     8     4     5 ar  
     9     4    28 1   
    10     5     6 ar  
    11     5    29 1   
    12     6    16 1   
    13     6    18 ar  
    14     7    14 ar  
    15     7    16 1   
    16     7    21 ar  
    17     8    20 ar  
    18     8    21 ar  
    19     8    30 1   
    20     9    24 2   
    21     9    31 1   
    22    10    12 ar  
    23    10    24 1   
    24    10    27 ar  
    25    11    26 ar  
    26    11    27 ar  
    27    11    32 1   
    28    12    25 ar  
    29    12    33 1   
    30    13    14 ar  
    31    13    20 ar  
    32    13    34 1   
    33    14    15 1   
    34    15    35 1   
    35    17    18 ar  
    36    17    36 1   
    37    18    19 1   
    38    19    37 1   
    39    19    38 1   
    40    19    39 1   
    41    20    22 1   
    42    21    40 1   
    43    22    41 1   
    44    22    42 1   
    45    23    24 1   
    46    25    26 ar  
    47    25    43 1   
    48    26    44 1   
    49    27    45 1   
@<TRIPOS>SUBSTRUCTURE
     1 53K         1 TEMP              0 ****  ****    0 ROOT
