@<TRIPOS>MOLECULE
53L
   45    48     1     0     0
SMALL
No Charge or Current Charge


@<TRIPOS>ATOM
      1 C2          -1.0590     0.5770    -0.7810 c6         1 53L       0.227500
      2 C3          -2.4830     1.2600    -0.5580 c6         1 53L       0.162300
      3 C5          -3.5070     0.9980    -1.6990 c3         1 53L      -0.099100
      4 O6          -2.4060     2.6970    -0.4840 os         1 53L      -0.447000
      5 C7          -1.5590     3.1580     0.5760 c6         1 53L       0.153300
      6 C9          -1.7990     4.6780     0.7300 c3         1 53L      -0.089100
      7 C10         -0.0810     2.8160     0.2560 c6         1 53L       0.187800
      8 N11          0.1220     1.3690    -0.1980 nh         1 53L      -0.822400
      9 C12          1.4290     0.7990    -0.2030 ca         1 53L       0.417000
     10 C13          2.5730     1.6080    -0.0350 ca         1 53L      -0.209000
     11 C14          3.8630     1.0550    -0.0310 ca         1 53L       0.012000
     12 C15          4.0390    -0.3320    -0.2010 ca         1 53L      -0.249200
     13 C16          2.9030    -1.1490    -0.3780 ca         1 53L       0.018000
     14 C17          1.6090    -0.5930    -0.3800 ca         1 53L      -0.190300
     15 C18          0.4240    -1.5370    -0.6010 c6         1 53L      -0.009100
     16 C19         -0.9710    -0.9060    -0.2820 c6         1 53L      -0.225300
     17 C20         -1.2370    -0.9660     1.2190 c2         1 53L       0.717600
     18 O21         -0.2540    -0.6410     2.0350 oh         1 53L      -0.581600
     19 N22         -2.2740    -1.4070     1.8270 ne         1 53L      -0.761100
     20 C23         -3.3540    -1.9290     1.1480 c          1 53L       0.733400
     21 O24         -4.4060    -2.2400     1.6650 o          1 53L      -0.474000
     22 N25         -3.1270    -2.1140    -0.1690 ns         1 53L      -0.497500
     23 C26         -2.0640    -1.7590    -0.9290 c          1 53L       0.582000
     24 O27         -2.0080    -2.1310    -2.0900 o          1 53L      -0.505000
     25 N28          5.4110    -0.9280    -0.1990 no         1 53L       0.705200
     26 O29          6.3780    -0.1720    -0.0420 o          1 53L      -0.411500
     27 O30          5.5180    -2.1520    -0.3530 o          1 53L      -0.411500
     28 H2          -0.9110     0.5540    -1.8720 h1         1 53L       0.092700
     29 H3          -2.9260     0.9100     0.3850 h1         1 53L       0.048700
     30 H51         -3.8710    -0.0320    -1.7190 hc         1 53L       0.054033
     31 H52         -4.3910     1.6350    -1.5800 hc         1 53L       0.054033
     32 H53         -3.0720     1.2200    -2.6810 hc         1 53L       0.054033
     33 H7          -1.8590     2.6530     1.5050 h1         1 53L       0.045700
     34 H91         -2.8500     4.8880     0.9590 hc         1 53L       0.051033
     35 H92         -1.1930     5.0900     1.5470 hc         1 53L       0.051033
     36 H93         -1.5380     5.2190    -0.1870 hc         1 53L       0.051033
     37 H102         0.2750     3.5000    -0.5280 h1         1 53L       0.064700
     38 H103         0.5090     3.0180     1.1620 h1         1 53L       0.064700
     39 H13          2.4830     2.6810     0.0850 ha         1 53L       0.126000
     40 H14          4.7180     1.7170     0.1020 ha         1 53L       0.148000
     41 H16          3.0160    -2.2230    -0.5200 ha         1 53L       0.148000
     42 H182         0.4650    -1.8430    -1.6560 hc         1 53L       0.077200
     43 H183         0.5620    -2.4640    -0.0240 hc         1 53L       0.077200
     44 H21         -0.6800    -0.8000     2.8980 ho         1 53L       0.508000
     45 H25         -3.8610    -2.6050    -0.6560 hn         1 53L       0.347500
@<TRIPOS>BOND
     1     1     2 1   
     2     1     8 1   
     3     1    16 1   
     4     1    28 1   
     5     2     3 1   
     6     2     4 1   
     7     2    29 1   
     8     3    30 1   
     9     3    31 1   
    10     3    32 1   
    11     4     5 1   
    12     5     6 1   
    13     5     7 1   
    14     5    33 1   
    15     6    34 1   
    16     6    35 1   
    17     6    36 1   
    18     7     8 1   
    19     7    37 1   
    20     7    38 1   
    21     8     9 1   
    22     9    10 ar  
    23     9    14 ar  
    24    10    11 ar  
    25    10    39 1   
    26    11    12 ar  
    27    11    40 1   
    28    12    13 ar  
    29    12    25 1   
    30    13    14 ar  
    31    13    41 1   
    32    14    15 1   
    33    15    16 1   
    34    15    42 1   
    35    15    43 1   
    36    16    17 1   
    37    16    23 1   
    38    17    18 1   
    39    17    19 2   
    40    18    44 1   
    41    19    20 1   
    42    20    21 2   
    43    20    22 1   
    44    22    23 1   
    45    22    45 1   
    46    23    24 2   
    47    25    26 1   
    48    25    27 1   
@<TRIPOS>SUBSTRUCTURE
     1 53L         1 TEMP              0 ****  ****    0 ROOT
