@<TRIPOS>MOLECULE
53L
   45    48     1     0     0
SMALL
abcg2


@<TRIPOS>ATOM
      1 C2          -1.2020     0.7960    -0.6890 c6         1 53L       0.227500
      2 C3          -2.2990     1.4350     0.1960 c6         1 53L       0.162300
      3 C5          -3.6840     0.8700    -0.0470 c3         1 53L      -0.099100
      4 O6          -2.3730     2.8160    -0.0780 os         1 53L      -0.447000
      5 C7          -1.1710     3.5090     0.2000 c6         1 53L       0.153300
      6 C9          -1.3910     4.9770    -0.0880 c3         1 53L      -0.089100
      7 C10         -0.0580     2.9250    -0.6500 c6         1 53L       0.187800
      8 N11          0.0580     1.4920    -0.4420 nh         1 53L      -0.822400
      9 C12          1.2380     0.8840    -0.1620 ca         1 53L       0.417000
     10 C13          2.3280     1.5660     0.4140 ca         1 53L      -0.209000
     11 C14          3.5000     0.9100     0.7060 ca         1 53L       0.012000
     12 C15          3.6220    -0.4500     0.4360 ca         1 53L      -0.249200
     13 C16          2.5600    -1.1450    -0.1390 ca         1 53L       0.018000
     14 C17          1.3950    -0.4880    -0.4520 ca         1 53L      -0.190300
     15 C18          0.2740    -1.1780    -1.1460 c6         1 53L      -0.009100
     16 C19         -1.0950    -0.7360    -0.5550 c6         1 53L      -0.225300
     17 C20         -1.1730    -1.2560     0.8560 c2         1 53L       0.717600
     18 O21         -0.4650    -0.5680     1.7100 oh         1 53L      -0.581600
     19 N22         -1.7980    -2.3000     1.2480 ne         1 53L      -0.761100
     20 C23         -2.5640    -3.0240     0.3660 c          1 53L       0.733400
     21 O24         -3.1090    -4.0520     0.6880 o          1 53L      -0.474000
     22 N25         -2.7210    -2.5270    -0.9190 ns         1 53L      -0.497500
     23 C26         -2.1390    -1.4120    -1.4380 c          1 53L       0.582000
     24 O27         -2.3750    -1.0330    -2.5610 o          1 53L      -0.505000
     25 N28          4.8380    -1.1380     0.7480 no         1 53L       0.705200
     26 O29          5.7550    -0.5040     1.2280 o          1 53L      -0.411500
     27 O30          4.9040    -2.3290     0.5210 o          1 53L      -0.411500
     28 H2          -1.4840     0.9840    -1.7330 h1         1 53L       0.092700
     29 H3          -2.0260     1.2950     1.2500 h1         1 53L       0.048700
     30 H51         -3.7740    -0.1660     0.2800 hc         1 53L       0.054033
     31 H52         -4.4120     1.4360     0.5340 hc         1 53L       0.054033
     32 H53         -3.9700     0.9290    -1.0980 hc         1 53L       0.054033
     33 H7          -0.9060     3.3780     1.2600 h1         1 53L       0.045700
     34 H91         -2.2030     5.3750     0.5210 hc         1 53L       0.051033
     35 H92         -0.4910     5.5450     0.1450 hc         1 53L       0.051033
     36 H93         -1.6360     5.1420    -1.1390 hc         1 53L       0.051033
     37 H102        -0.2760     3.1100    -1.7100 h1         1 53L       0.064700
     38 H103         0.8820     3.4220    -0.4270 h1         1 53L       0.064700
     39 H13          2.2550     2.6120     0.6740 ha         1 53L       0.126000
     40 H14          4.3100     1.4600     1.1630 ha         1 53L       0.148000
     41 H16          2.6490    -2.1970    -0.3710 ha         1 53L       0.148000
     42 H182         0.2640    -0.9060    -2.2060 hc         1 53L       0.077200
     43 H183         0.3830    -2.2630    -1.0920 hc         1 53L       0.077200
     44 H21         -0.5150    -0.9760     2.5900 ho         1 53L       0.508000
     45 H25         -3.3480    -3.0400    -1.5280 hn         1 53L       0.347500
@<TRIPOS>BOND
     1     1     2 1   
     2     1     8 1   
     3     1    16 1   
     4     1    28 1   
     5     2     3 1   
     6     2     4 1   
     7     2    29 1   
     8     3    30 1   
     9     3    31 1   
    10     3    32 1   
    11     4     5 1   
    12     5     6 1   
    13     5     7 1   
    14     5    33 1   
    15     6    34 1   
    16     6    35 1   
    17     6    36 1   
    18     7     8 1   
    19     7    37 1   
    20     7    38 1   
    21     8     9 1   
    22     9    10 ar  
    23     9    14 ar  
    24    10    11 ar  
    25    10    39 1   
    26    11    12 ar  
    27    11    40 1   
    28    12    13 ar  
    29    12    25 1   
    30    13    14 ar  
    31    13    41 1   
    32    14    15 1   
    33    15    16 1   
    34    15    42 1   
    35    15    43 1   
    36    16    17 1   
    37    16    23 1   
    38    17    18 1   
    39    17    19 2   
    40    18    44 1   
    41    19    20 1   
    42    20    21 2   
    43    20    22 1   
    44    22    23 1   
    45    22    45 1   
    46    23    24 2   
    47    25    26 1   
    48    25    27 1   
@<TRIPOS>SUBSTRUCTURE
     1 53L         1 TEMP              0 ****  ****    0 ROOT
