@<TRIPOS>MOLECULE
53M
   45    48     1     0     0
SMALL
bcc


@<TRIPOS>ATOM
      1 C2          -1.2030     0.7570    -0.6810 c6         1 53M       0.234500
      2 C3          -2.3140     1.3830     0.1960 c6         1 53M       0.138100
      3 C5          -3.6930     0.8080    -0.0620 c3         1 53M      -0.098100
      4 O6          -2.3970     2.7640    -0.0770 os         1 53M      -0.403600
      5 C7          -1.2050     3.4690     0.2100 c6         1 53M       0.130100
      6 C9          -1.4380     4.9350    -0.0840 c3         1 53M      -0.089100
      7 C10         -0.0790     2.8950    -0.6300 c6         1 53M       0.187800
      8 N11          0.0480     1.4640    -0.4160 nh         1 53M      -0.685000
      9 C12          1.2360     0.8680    -0.1410 ca         1 53M       0.278600
     10 C13          2.3170     1.5630     0.4370 ca         1 53M      -0.226000
     11 C14          3.4990     0.9210     0.7250 ca         1 53M      -0.007000
     12 C15          3.6380    -0.4350     0.4510 ca         1 53M      -0.246200
     13 C16          2.5860    -1.1430    -0.1260 ca         1 53M      -0.001000
     14 C17          1.4120    -0.5000    -0.4350 ca         1 53M      -0.187300
     15 C18          0.3000    -1.2050    -1.1320 c6         1 53M      -0.006100
     16 C19         -1.0750    -0.7770    -0.5420 c6         1 53M      -0.219600
     17 C20         -1.1610    -1.2900     0.8720 c2         1 53M       0.692100
     18 O21         -0.4500    -0.6040     1.7290 oh         1 53M      -0.557100
     19 N22         -1.8080    -2.3220     1.2480 ne         1 53M      -0.769100
     20 C23         -2.5570    -3.0370     0.3230 c          1 53M       0.858900
     21 O24         -3.0680    -4.0830     0.6490 o          1 53M      -0.465100
     22 N25         -2.7480    -2.5540    -0.9660 ne         1 53M      -0.769100
     23 C26         -2.1160    -1.5170    -1.3480 c2         1 53M       0.692100
     24 O27         -2.2760    -1.0500    -2.5610 oh         1 53M      -0.557100
     25 N28          4.8640    -1.1080     0.7590 no         1 53M       0.325200
     26 O29          4.9460    -2.2970     0.5290 o          1 53M      -0.221000
     27 O30          5.7740    -0.4630     1.2380 o          1 53M      -0.221000
     28 H2          -1.4740     0.9580    -1.7240 h1         1 53M       0.083700
     29 H3          -2.0500     1.2430     1.2530 h1         1 53M       0.052700
     30 H51         -3.7850    -0.2200     0.2850 hc         1 53M       0.054033
     31 H52         -4.4320     1.3850     0.4930 hc         1 53M       0.054033
     32 H53         -3.9610     0.8450    -1.1190 hc         1 53M       0.054033
     33 H7          -0.9480     3.3430     1.2720 h1         1 53M       0.047700
     34 H91         -2.2570     5.3260     0.5190 hc         1 53M       0.050367
     35 H92         -0.5450     5.5120     0.1530 hc         1 53M       0.050367
     36 H93         -1.6780     5.0950    -1.1360 hc         1 53M       0.050367
     37 H102        -0.2900     3.0750    -1.6920 h1         1 53M       0.062700
     38 H103         0.8530     3.4030    -0.4010 h1         1 53M       0.062700
     39 H13          2.2310     2.6060     0.7010 ha         1 53M       0.144000
     40 H14          4.3010     1.4820     1.1830 ha         1 53M       0.167000
     41 H16          2.6880    -2.1930    -0.3610 ha         1 53M       0.167000
     42 H182         0.2990    -0.9400    -2.1930 hc         1 53M       0.074700
     43 H183         0.4200    -2.2870    -1.0710 hc         1 53M       0.074700
     44 H21         -0.5140    -1.0090     2.6090 ho         1 53M       0.468500
     45 H27         -2.9140    -1.5980    -3.0450 ho         1 53M       0.468500
@<TRIPOS>BOND
     1     1     2 1   
     2     1     8 1   
     3     1    16 1   
     4     1    28 1   
     5     2     3 1   
     6     2     4 1   
     7     2    29 1   
     8     3    30 1   
     9     3    31 1   
    10     3    32 1   
    11     4     5 1   
    12     5     6 1   
    13     5     7 1   
    14     5    33 1   
    15     6    34 1   
    16     6    35 1   
    17     6    36 1   
    18     7     8 1   
    19     7    37 1   
    20     7    38 1   
    21     8     9 1   
    22     9    10 ar  
    23     9    14 ar  
    24    10    11 ar  
    25    10    39 1   
    26    11    12 ar  
    27    11    40 1   
    28    12    13 ar  
    29    12    25 1   
    30    13    14 ar  
    31    13    41 1   
    32    14    15 1   
    33    15    16 1   
    34    15    42 1   
    35    15    43 1   
    36    16    17 1   
    37    16    23 1   
    38    17    18 1   
    39    17    19 2   
    40    18    44 1   
    41    19    20 1   
    42    20    21 2   
    43    20    22 1   
    44    22    23 2   
    45    23    24 1   
    46    24    45 1   
    47    25    26 1   
    48    25    27 1   
@<TRIPOS>SUBSTRUCTURE
     1 53M         1 TEMP              0 ****  ****    0 ROOT
