@<TRIPOS>MOLECULE
53M
   45    48     1     0     0
SMALL
No Charge or Current Charge


@<TRIPOS>ATOM
      1 C2          -1.1960     0.7400    -0.6880 c6         1 53M       0.234500
      2 C3          -2.4320     1.4270     0.0340 c6         1 53M       0.161300
      3 C5          -3.8370     0.9140    -0.3770 c3         1 53M      -0.098100
      4 O6          -2.4600     2.8470    -0.2550 os         1 53M      -0.450000
      5 C7          -1.3020     3.5610     0.2310 c6         1 53M       0.153300
      6 C9          -1.5510     5.0650    -0.0350 c3         1 53M      -0.089100
      7 C10          0.0020     3.0430    -0.4460 c6         1 53M       0.187800
      8 N11          0.0900     1.5130    -0.3290 nh         1 53M      -0.823400
      9 C12          1.3330     0.8420    -0.1050 ca         1 53M       0.417000
     10 C13          2.4310     1.4930     0.4950 ca         1 53M      -0.208000
     11 C14          3.6510     0.8310     0.7010 ca         1 53M       0.011000
     12 C15          3.8020    -0.5150     0.3140 ca         1 53M      -0.246200
     13 C16          2.7050    -1.1850    -0.2640 ca         1 53M       0.017000
     14 C17          1.4800    -0.5170    -0.4600 ca         1 53M      -0.187300
     15 C18          0.3100    -1.2860    -1.0580 c6         1 53M      -0.006100
     16 C19         -1.0530    -0.8120    -0.4830 c6         1 53M      -0.219600
     17 C20         -1.2320    -1.2390     0.9560 c2         1 53M       0.692100
     18 O21         -0.6440    -0.5300     1.8980 oh         1 53M      -0.596100
     19 N22         -1.9090    -2.2340     1.3760 ne         1 53M      -0.769100
     20 C23         -2.4460    -3.1090     0.4580 c          1 53M       0.858900
     21 O24         -2.6020    -4.2870     0.7030 o          1 53M      -0.465100
     22 N25         -2.8060    -2.5570    -0.7520 ne         1 53M      -0.769100
     23 C26         -2.1450    -1.5640    -1.1960 c2         1 53M       0.692100
     24 O27         -2.4000    -1.2240    -2.4450 oh         1 53M      -0.596100
     25 N28          5.1020    -1.2250     0.5260 no         1 53M       0.705200
     26 O29          5.1850    -2.4100     0.1770 o          1 53M      -0.411000
     27 O30          6.0360    -0.5950     1.0390 o          1 53M      -0.411000
     28 H2          -1.3500     0.9070    -1.7650 h1         1 53M       0.083700
     29 H3          -2.3380     1.3090     1.1220 h1         1 53M       0.052700
     30 H51         -4.0360    -0.0870     0.0210 hc         1 53M       0.054033
     31 H52         -4.6200     1.5680     0.0240 hc         1 53M       0.054033
     32 H53         -3.9550     0.8890    -1.4660 hc         1 53M       0.054033
     33 H7          -1.2300     3.4030     1.3170 h1         1 53M       0.047700
     34 H91         -2.4700     5.4040     0.4570 hc         1 53M       0.050367
     35 H92         -0.7240     5.6730     0.3500 hc         1 53M       0.050367
     36 H93         -1.6470     5.2690    -1.1080 hc         1 53M       0.050367
     37 H102        -0.0080     3.3300    -1.5080 h1         1 53M       0.062700
     38 H103         0.8490     3.5660     0.0110 h1         1 53M       0.062700
     39 H13          2.3590     2.5180     0.8350 ha         1 53M       0.126000
     40 H14          4.4730     1.3750     1.1670 ha         1 53M       0.149000
     41 H16          2.7940    -2.2300    -0.5600 ha         1 53M       0.149000
     42 H182         0.3300    -1.1460    -2.1490 hc         1 53M       0.074700
     43 H183         0.4350    -2.3660    -0.8910 hc         1 53M       0.074700
     44 H21         -0.9080    -1.0260     2.6970 ho         1 53M       0.507500
     45 H27         -3.0900    -1.8740    -2.6820 ho         1 53M       0.507500
@<TRIPOS>BOND
     1     1     2 1   
     2     1     8 1   
     3     1    16 1   
     4     1    28 1   
     5     2     3 1   
     6     2     4 1   
     7     2    29 1   
     8     3    30 1   
     9     3    31 1   
    10     3    32 1   
    11     4     5 1   
    12     5     6 1   
    13     5     7 1   
    14     5    33 1   
    15     6    34 1   
    16     6    35 1   
    17     6    36 1   
    18     7     8 1   
    19     7    37 1   
    20     7    38 1   
    21     8     9 1   
    22     9    10 ar  
    23     9    14 ar  
    24    10    11 ar  
    25    10    39 1   
    26    11    12 ar  
    27    11    40 1   
    28    12    13 ar  
    29    12    25 1   
    30    13    14 ar  
    31    13    41 1   
    32    14    15 1   
    33    15    16 1   
    34    15    42 1   
    35    15    43 1   
    36    16    17 1   
    37    16    23 1   
    38    17    18 1   
    39    17    19 2   
    40    18    44 1   
    41    19    20 1   
    42    20    21 2   
    43    20    22 1   
    44    22    23 2   
    45    23    24 1   
    46    24    45 1   
    47    25    26 1   
    48    25    27 1   
@<TRIPOS>SUBSTRUCTURE
     1 53M         1 TEMP              0 ****  ****    0 ROOT
