@<TRIPOS>MOLECULE
53N
   29    30     1     0     0
SMALL
No Charge or Current Charge


@<TRIPOS>ATOM
      1 C5           2.3620     0.2370     0.1510 ca         1 53N      -0.057000
      2 C6           1.7340    -1.0160    -0.0040 ca         1 53N       0.031000
      3 C7           0.2720    -1.0980    -0.0830 cc         1 53N      -0.235000
      4 C15         -1.8300    -2.0420     0.2240 cd         1 53N      -0.185000
      5 C17          2.5330    -2.1740    -0.0950 ca         1 53N      -0.074000
      6 C1           3.7720     0.3430     0.2250 ca         1 53N      -0.170200
      7 N2           4.4270     1.6820     0.3950 no         1 53N       0.693200
      8 O3           3.7030     2.6840     0.4620 o          1 53N      -0.405500
      9 O4           5.6630     1.7260     0.4590 o          1 53N      -0.405500
     10 S8          -0.8000     0.1500    -0.7140 ss         1 53N       0.207000
     11 C9          -2.2080    -0.8510    -0.3500 cc         1 53N      -0.119300
     12 C11         -4.1480     0.6220     0.3780 c3         1 53N      -0.207400
     13 C12         -5.5750     1.0450     0.0010 c          1 53N       0.719000
     14 O13         -6.5050     0.3710     0.4170 o          1 53N      -0.734000
     15 O14         -5.7140     2.0040    -0.7430 o          1 53N      -0.734000
     16 C16         -0.4240    -2.1860     0.3830 cd         1 53N      -0.094000
     17 C18          3.9320    -2.0820    -0.0250 ca         1 53N      -0.123000
     18 C19          4.5530    -0.8330     0.1360 ca         1 53N      -0.069000
     19 H5           1.7450     1.1300     0.2250 ha         1 53N       0.161000
     20 H10         -3.6190     0.0830    -1.6580 hc         1 53N       0.062700
     21 H10A        -4.2780    -1.2460    -0.7190 hc         1 53N       0.062700
     22 H15         -2.5400    -2.8020     0.5330 ha         1 53N       0.135000
     23 H17          2.0750    -3.1490    -0.2350 ha         1 53N       0.123000
     24 H11         -4.1440     0.0890     1.3370 hc         1 53N       0.024200
     25 H11A        -3.4710     1.4840     0.3490 hc         1 53N       0.024200
     26 H16          0.0340    -3.0600     0.8350 ha         1 53N       0.116000
     27 H18          4.5380    -2.9820    -0.0980 ha         1 53N       0.118000
     28 H19          5.6400    -0.7870     0.1880 ha         1 53N       0.143000
     29 C10         -3.6040    -0.3820    -0.6640 c3         1 53N      -0.008100
@<TRIPOS>BOND
     1     1     2 ar  
     2     1     6 ar  
     3     1    19 1   
     4     2     3 1   
     5     2     5 ar  
     6     3    10 1   
     7     3    16 2   
     8     4    11 2   
     9     4    16 1   
    10     4    22 1   
    11     5    17 ar  
    12     5    23 1   
    13     6     7 1   
    14     6    18 ar  
    15     7     8 1   
    16     7     9 1   
    17    10    11 1   
    18    11    29 1   
    19    12    13 1   
    20    12    24 1   
    21    12    25 1   
    22    12    29 1   
    23    13    14 1   
    24    13    15 1   
    25    16    26 1   
    26    17    18 ar  
    27    17    27 1   
    28    18    28 1   
    29    20    29 1   
    30    21    29 1   
@<TRIPOS>SUBSTRUCTURE
     1 53N         1 TEMP              0 ****  ****    0 ROOT
