@<TRIPOS>MOLECULE
53N
   29    30     1     0     0
SMALL
abcg2


@<TRIPOS>ATOM
      1 C5           2.2570     0.2150     0.1810 ca         1 53N      -0.057000
      2 C6           1.7090    -1.0530    -0.0040 ca         1 53N       0.031000
      3 C7           0.2660    -1.2460    -0.1050 cc         1 53N      -0.235000
      4 C15         -1.8530    -2.2030    -0.0410 cd         1 53N      -0.185000
      5 C17          2.5760    -2.1480    -0.0820 ca         1 53N      -0.074000
      6 C1           3.6320     0.3570     0.2800 ca         1 53N      -0.170200
      7 N2           4.1840     1.6930     0.4690 no         1 53N       0.693200
      8 O3           3.4190     2.6290     0.4780 o          1 53N      -0.405500
      9 O4           5.3790     1.7980     0.6060 o          1 53N      -0.405500
     10 S8          -0.7850     0.0330    -0.6100 ss         1 53N       0.207000
     11 C9          -2.1930    -0.9490    -0.4580 cc         1 53N      -0.119300
     12 C11         -3.9950     0.5940     0.3650 c3         1 53N      -0.207400
     13 C12         -5.3930     1.2050     0.1560 c          1 53N       0.719000
     14 O13         -5.8750     1.8080     1.1370 o          1 53N      -0.734000
     15 O14         -5.9220     1.0690    -0.9640 o          1 53N      -0.734000
     16 C16         -0.4590    -2.3740     0.1580 cd         1 53N      -0.094000
     17 C18          3.9460    -1.9830     0.0340 ca         1 53N      -0.123000
     18 C19          4.4960    -0.7240     0.2150 ca         1 53N      -0.069000
     19 H5           1.6150     1.0810     0.2640 ha         1 53N       0.161000
     20 H10         -3.5760     0.1050    -1.6930 hc         1 53N       0.062700
     21 H10A        -4.2530    -1.2210    -0.7750 hc         1 53N       0.062700
     22 H15         -2.5850    -2.9810     0.1240 ha         1 53N       0.135000
     23 H17          2.1780    -3.1390    -0.2500 ha         1 53N       0.123000
     24 H11         -3.9600     0.1040     1.3420 hc         1 53N       0.024200
     25 H11A        -3.2750     1.4180     0.4290 hc         1 53N       0.024200
     26 H16         -0.0170    -3.2980     0.5060 ha         1 53N       0.116000
     27 H18          4.5970    -2.8440    -0.0290 ha         1 53N       0.118000
     28 H19          5.5650    -0.6010     0.2950 ha         1 53N       0.143000
     29 C10         -3.5520    -0.3870    -0.7180 c3         1 53N      -0.008100
@<TRIPOS>BOND
     1     1     2 ar  
     2     1     6 ar  
     3     1    19 1   
     4     2     3 1   
     5     2     5 ar  
     6     3    10 1   
     7     3    16 2   
     8     4    11 2   
     9     4    16 1   
    10     4    22 1   
    11     5    17 ar  
    12     5    23 1   
    13     6     7 1   
    14     6    18 ar  
    15     7     8 1   
    16     7     9 1   
    17    10    11 1   
    18    11    29 1   
    19    12    13 1   
    20    12    24 1   
    21    12    25 1   
    22    12    29 1   
    23    13    14 1   
    24    13    15 1   
    25    16    26 1   
    26    17    18 ar  
    27    17    27 1   
    28    18    28 1   
    29    20    29 1   
    30    21    29 1   
@<TRIPOS>SUBSTRUCTURE
     1 53N         1 TEMP              0 ****  ****    0 ROOT
