@<TRIPOS>MOLECULE
53O
   29    31     1     0     0
SMALL
abcg2


@<TRIPOS>ATOM
      1 CAK          3.8480     0.2930    -0.6740 cc         1 53O      -0.221000
      2 CAD          4.7080    -0.7600    -0.5920 cd         1 53O       0.230900
      3 NAO          4.1210    -1.8050     0.0680 nd         1 53O      -0.669000
      4 CAL          2.9230    -1.3940     0.3760 cc         1 53O       0.400400
      5 NBC          2.6990    -0.1250    -0.0510 na         1 53O      -0.076300
      6 CAY          1.5140     0.6200     0.1290 ca         1 53O       0.004800
      7 CAN          0.2850    -0.0070    -0.0200 ca         1 53O      -0.113000
      8 CAI          1.5850     1.9710     0.4430 ca         1 53O      -0.116000
      9 CAC          0.4090     2.6870     0.6030 ca         1 53O      -0.094000
     10 CAH         -0.8220     2.0640     0.4730 ca         1 53O      -0.103000
     11 CAX         -0.8990     0.7050     0.1650 cp         1 53O      -0.012000
     12 CAW         -2.2050     0.0300     0.0240 cp         1 53O      -0.044000
     13 CAM         -2.3830    -1.2770     0.4800 ca         1 53O      -0.096000
     14 CAG         -3.2880     0.6840    -0.5640 ca         1 53O      -0.096000
     15 CAB         -4.5150     0.0500    -0.6920 ca         1 53O      -0.110000
     16 CAF         -4.6810    -1.2500    -0.2330 ca         1 53O      -0.102000
     17 CAV         -3.6100    -1.9120     0.3530 ca         1 53O      -0.110000
     18 H1           3.9380     1.2640    -1.1290 h4         1 53O       0.159000
     19 H2           5.7140    -0.8210    -0.9780 h4         1 53O       0.039100
     20 H3           2.1800    -1.9550     0.9230 h5         1 53O       0.056100
     21 H4           0.2470    -1.0480    -0.3170 ha         1 53O       0.129000
     22 H5           2.5430     2.4570     0.5780 ha         1 53O       0.128000
     23 H6           0.4560     3.7380     0.8530 ha         1 53O       0.120000
     24 H7          -1.7280     2.6350     0.6320 ha         1 53O       0.122000
     25 H8          -1.5650    -1.7980     0.9610 ha         1 53O       0.114000
     26 H9          -3.1690     1.6910    -0.9450 ha         1 53O       0.114000
     27 H10         -5.3420     0.5720    -1.1560 ha         1 53O       0.115500
     28 H11         -5.6390    -1.7440    -0.3310 ha         1 53O       0.115000
     29 H12         -3.7320    -2.9220     0.7200 ha         1 53O       0.115500
@<TRIPOS>BOND
     1     1     2 2   
     2     1     5 1   
     3     1    18 1   
     4     2     3 1   
     5     2    19 1   
     6     3     4 2   
     7     4     5 1   
     8     4    20 1   
     9     5     6 1   
    10     6     7 ar  
    11     6     8 ar  
    12     7    11 ar  
    13     7    21 1   
    14     8     9 ar  
    15     8    22 1   
    16     9    10 ar  
    17     9    23 1   
    18    10    11 ar  
    19    10    24 1   
    20    11    12 1   
    21    12    13 ar  
    22    12    14 ar  
    23    13    17 ar  
    24    13    25 1   
    25    14    15 ar  
    26    14    26 1   
    27    15    16 ar  
    28    15    27 1   
    29    16    17 ar  
    30    16    28 1   
    31    17    29 1   
@<TRIPOS>SUBSTRUCTURE
     1 53O         1 TEMP              0 ****  ****    0 ROOT
