@<TRIPOS>MOLECULE
53O
   29    31     1     0     0
SMALL
No Charge or Current Charge


@<TRIPOS>ATOM
      1 CAK          3.9040     0.3430    -0.6210 cc         1 53O      -0.221000
      2 CAD          4.7680    -0.7230    -0.5520 cd         1 53O       0.230900
      3 NAO          4.1630    -1.8230     0.0430 nd         1 53O      -0.669000
      4 CAL          2.9250    -1.4420     0.3410 cc         1 53O       0.400400
      5 NBC          2.7480    -0.1360    -0.0540 na         1 53O      -0.076300
      6 CAY          1.5700     0.6000     0.1120 ca         1 53O       0.004800
      7 CAN          0.3110    -0.0270    -0.0050 ca         1 53O      -0.113000
      8 CAI          1.6250     1.9790     0.3980 ca         1 53O      -0.116000
      9 CAC          0.4410     2.7160     0.5630 ca         1 53O      -0.094000
     10 CAH         -0.8060     2.0820     0.4440 ca         1 53O      -0.103000
     11 CAX         -0.8970     0.6980     0.1580 cp         1 53O      -0.012000
     12 CAW         -2.2280     0.0220     0.0280 cp         1 53O      -0.044000
     13 CAM         -2.4190    -1.3120     0.4730 ca         1 53O      -0.096000
     14 CAG         -3.3390     0.6940    -0.5420 ca         1 53O      -0.096000
     15 CAB         -4.5880     0.0600    -0.6650 ca         1 53O      -0.110000
     16 CAF         -4.7530    -1.2610    -0.2170 ca         1 53O      -0.102000
     17 CAV         -3.6680    -1.9460     0.3520 ca         1 53O      -0.110000
     18 H1           4.0260     1.3410    -1.0200 h4         1 53O       0.159000
     19 H2           5.7940    -0.7620    -0.8990 h4         1 53O       0.039100
     20 H3           2.1560    -2.0310     0.8270 h5         1 53O       0.056100
     21 H4           0.2600    -1.0840    -0.2510 ha         1 53O       0.129000
     22 H5           2.5820     2.4830     0.5030 ha         1 53O       0.128000
     23 H6           0.4910     3.7790     0.7890 ha         1 53O       0.120000
     24 H7          -1.7090     2.6690     0.5880 ha         1 53O       0.122000
     25 H8          -1.5960    -1.8560     0.9300 ha         1 53O       0.114000
     26 H9          -3.2300     1.7120    -0.9070 ha         1 53O       0.114000
     27 H10         -5.4260     0.5920    -1.1090 ha         1 53O       0.115500
     28 H11         -5.7190    -1.7520    -0.3110 ha         1 53O       0.115000
     29 H12         -3.7940    -2.9680     0.7030 ha         1 53O       0.115500
@<TRIPOS>BOND
     1     1     2 2   
     2     1     5 1   
     3     1    18 1   
     4     2     3 1   
     5     2    19 1   
     6     3     4 2   
     7     4     5 1   
     8     4    20 1   
     9     5     6 1   
    10     6     7 ar  
    11     6     8 ar  
    12     7    11 ar  
    13     7    21 1   
    14     8     9 ar  
    15     8    22 1   
    16     9    10 ar  
    17     9    23 1   
    18    10    11 ar  
    19    10    24 1   
    20    11    12 1   
    21    12    13 ar  
    22    12    14 ar  
    23    13    17 ar  
    24    13    25 1   
    25    14    15 ar  
    26    14    26 1   
    27    15    16 ar  
    28    15    27 1   
    29    16    17 ar  
    30    16    28 1   
    31    17    29 1   
@<TRIPOS>SUBSTRUCTURE
     1 53O         1 TEMP              0 ****  ****    0 ROOT
