@<TRIPOS>MOLECULE
53Q
   57    59     1     0     0
SMALL
abcg2


@<TRIPOS>ATOM
      1 C5           3.7940    -0.4270     1.4440 c3         1 53Q       0.161600
      2 C6           1.6610    -0.8790     0.4880 ca         1 53Q       0.155100
      3 C7           1.0070     0.0250     1.3240 ca         1 53Q      -0.179500
      4 C8          -0.3520     0.2530     1.1650 ca         1 53Q      -0.051500
      5 C9          -1.0910    -0.3980     0.1830 ca         1 53Q      -0.100800
      6 C10         -0.4270    -1.3210    -0.6300 ca         1 53Q      -0.051500
      7 C11          0.9260    -1.5550    -0.4900 ca         1 53Q      -0.179500
      8 C12         -2.5410    -0.1600     0.0120 ce         1 53Q       0.019600
      9 C13         -3.0410     1.0850    -0.0120 cf         1 53Q       0.136800
     10 C14         -2.2680     2.3380    -0.0680 ca         1 53Q      -0.059800
     11 C15         -1.2920     2.5050    -1.0500 ca         1 53Q      -0.084000
     12 CL          -4.7700     1.3400     0.0230 cl         1 53Q      -0.202000
     13 C19         -2.5040     3.3740     0.8350 ca         1 53Q      -0.084000
     14 C18         -1.7600     4.5420     0.7730 ca         1 53Q      -0.115000
     15 C17         -0.7830     4.6980    -0.2030 ca         1 53Q      -0.100000
     16 C16         -0.5550     3.6770    -1.1170 ca         1 53Q      -0.115000
     17 C20         -3.3860    -1.3710    -0.1050 ca         1 53Q      -0.057800
     18 C25         -3.3230    -2.3580     0.8780 ca         1 53Q      -0.086500
     19 C24         -4.0910    -3.5080     0.7720 ca         1 53Q      -0.115000
     20 C23         -4.9150    -3.6980    -0.3300 ca         1 53Q      -0.103000
     21 C22         -4.9670    -2.7290    -1.3240 ca         1 53Q      -0.115000
     22 C21         -4.2100    -1.5720    -1.2110 ca         1 53Q      -0.086500
     23 O            2.9700    -1.1700     0.5570 os         1 53Q      -0.350100
     24 H1           3.7000     0.6470     1.2520 h1         1 53Q       0.043700
     25 H2           3.4810    -0.6120     2.4770 h1         1 53Q       0.043700
     26 H4           1.5320     0.5540     2.1070 ha         1 53Q       0.123000
     27 H5          -0.8400     0.9490     1.8350 ha         1 53Q       0.120000
     28 H6          -0.9750    -1.8550    -1.3970 ha         1 53Q       0.120000
     29 H7           1.4280    -2.2640    -1.1370 ha         1 53Q       0.123000
     30 H8          -1.1150     1.7150    -1.7680 ha         1 53Q       0.121000
     31 H9          -3.2650     3.2640     1.5970 ha         1 53Q       0.121000
     32 H10         -1.9460     5.3340     1.4860 ha         1 53Q       0.114500
     33 H11         -0.2070     5.6130    -0.2540 ha         1 53Q       0.113000
     34 H12          0.1950     3.7950    -1.8870 ha         1 53Q       0.114500
     35 H13         -2.6720    -2.2220     1.7340 ha         1 53Q       0.118500
     36 H14         -4.0410    -4.2600     1.5490 ha         1 53Q       0.113000
     37 H15         -5.5080    -4.5990    -0.4160 ha         1 53Q       0.112000
     38 H16         -5.5960    -2.8760    -2.1920 ha         1 53Q       0.113000
     39 H17         -4.2500    -0.8260    -1.9940 ha         1 53Q       0.118500
     40 C4           5.2420    -0.8490     1.2950 c3         1 53Q       0.173800
     41 N1           5.9510    -0.2340     0.1870 n3         1 53Q      -0.729600
     42 C3           7.3870    -0.4180     0.3450 c3         1 53Q       0.171800
     43 C2           8.2200     0.3700    -0.6530 c3         1 53Q      -0.107600
     44 C26          5.4580    -0.5970    -1.1350 c3         1 53Q       0.171800
     45 C27          5.5790    -2.0670    -1.5290 c3         1 53Q      -0.107600
     46 H3           5.7380    -0.5200     2.2120 h1         1 53Q       0.041200
     47 H18          5.3020    -1.9490     1.3040 h1         1 53Q       0.041200
     48 H19          7.6460    -0.0780     1.3510 h1         1 53Q       0.039450
     49 H20          7.6850    -1.4780     0.3020 h1         1 53Q       0.039450
     50 H21          9.2710     0.3300    -0.3650 hc         1 53Q       0.037033
     51 H22          8.1500    -0.0240    -1.6670 hc         1 53Q       0.037033
     52 H23          7.9170     1.4180    -0.6740 hc         1 53Q       0.037033
     53 H24          4.4150    -0.2900    -1.2140 h1         1 53Q       0.039450
     54 H25          5.9890     0.0130    -1.8690 h1         1 53Q       0.039450
     55 H26          6.6100    -2.4200    -1.4840 hc         1 53Q       0.037033
     56 H27          4.9750    -2.7120    -0.8900 hc         1 53Q       0.037033
     57 H28          5.2310    -2.2050    -2.5530 hc         1 53Q       0.037033
@<TRIPOS>BOND
     1     1    23 1   
     2     1    24 1   
     3     1    25 1   
     4     1    40 1   
     5     2     3 ar  
     6     2     7 ar  
     7     2    23 1   
     8     3     4 ar  
     9     3    26 1   
    10     4     5 ar  
    11     4    27 1   
    12     5     6 ar  
    13     5     8 1   
    14     6     7 ar  
    15     6    28 1   
    16     7    29 1   
    17     8     9 2   
    18     8    17 1   
    19     9    10 1   
    20     9    12 1   
    21    10    11 ar  
    22    10    13 ar  
    23    11    16 ar  
    24    11    30 1   
    25    13    14 ar  
    26    13    31 1   
    27    14    15 ar  
    28    14    32 1   
    29    15    16 ar  
    30    15    33 1   
    31    16    34 1   
    32    17    18 ar  
    33    17    22 ar  
    34    18    19 ar  
    35    18    35 1   
    36    19    20 ar  
    37    19    36 1   
    38    20    21 ar  
    39    20    37 1   
    40    21    22 ar  
    41    21    38 1   
    42    22    39 1   
    43    40    41 1   
    44    40    46 1   
    45    40    47 1   
    46    41    42 1   
    47    41    44 1   
    48    42    43 1   
    49    42    48 1   
    50    42    49 1   
    51    43    50 1   
    52    43    51 1   
    53    43    52 1   
    54    44    45 1   
    55    44    53 1   
    56    44    54 1   
    57    45    55 1   
    58    45    56 1   
    59    45    57 1   
@<TRIPOS>SUBSTRUCTURE
     1 53Q         1 TEMP              0 ****  ****    0 ROOT
