@<TRIPOS>MOLECULE
53Q
   57    59     1     0     0
SMALL
No Charge or Current Charge


@<TRIPOS>ATOM
      1 C5           3.8550    -0.4720     1.4910 c3         1 53Q       0.161600
      2 C6           1.6570    -0.8630     0.4340 ca         1 53Q       0.155100
      3 C7           1.0010     0.0590     1.2760 ca         1 53Q      -0.179500
      4 C8          -0.3760     0.2970     1.1220 ca         1 53Q      -0.051500
      5 C9          -1.1120    -0.3770     0.1260 ca         1 53Q      -0.100800
      6 C10         -0.4530    -1.3040    -0.7060 ca         1 53Q      -0.051500
      7 C11          0.9230    -1.5410    -0.5510 ca         1 53Q      -0.179500
      8 C12         -2.5770    -0.1250    -0.0380 ce         1 53Q       0.019600
      9 C13         -3.1400     1.1250    -0.0820 cf         1 53Q       0.136800
     10 C14         -2.4250     2.4240    -0.1150 ca         1 53Q      -0.059800
     11 C15         -1.2820     2.5900    -0.9270 ca         1 53Q      -0.084000
     12 Cl          -4.8780     1.3380    -0.1750 cl         1 53Q      -0.202000
     13 C19         -2.8750     3.5190     0.6560 ca         1 53Q      -0.084000
     14 C18         -2.1910     4.7470     0.6210 ca         1 53Q      -0.115000
     15 C17         -1.0520     4.8970    -0.1860 ca         1 53Q      -0.100000
     16 C16         -0.5990     3.8170    -0.9610 ca         1 53Q      -0.115000
     17 C20         -3.3700    -1.3900    -0.0800 ca         1 53Q      -0.057800
     18 C25         -3.2560    -2.3310     0.9630 ca         1 53Q      -0.086500
     19 C24         -3.9860    -3.5320     0.9210 ca         1 53Q      -0.115000
     20 C23         -4.8310    -3.8030    -0.1680 ca         1 53Q      -0.103000
     21 C22         -4.9420    -2.8750    -1.2170 ca         1 53Q      -0.115000
     22 C21         -4.2120    -1.6740    -1.1750 ca         1 53Q      -0.086500
     23 O            3.0040    -1.1360     0.5340 os         1 53Q      -0.350100
     24 H1           3.8300     0.6170     1.3610 h1         1 53Q       0.043700
     25 H2           3.5200    -0.7050     2.5100 h1         1 53Q       0.043700
     26 H4           1.5380     0.5970     2.0520 ha         1 53Q       0.123000
     27 H5          -0.8730     1.0050     1.7820 ha         1 53Q       0.120000
     28 H6          -1.0060    -1.8350    -1.4770 ha         1 53Q       0.120000
     29 H7           1.4260    -2.2540    -1.2000 ha         1 53Q       0.123000
     30 H8          -0.9240     1.7680    -1.5430 ha         1 53Q       0.121000
     31 H9          -3.7470     3.4190     1.2980 ha         1 53Q       0.121000
     32 H10         -2.5430     5.5810     1.2240 ha         1 53Q       0.114500
     33 H11         -0.5230     5.8470    -0.2120 ha         1 53Q       0.113000
     34 H12          0.2810     3.9320    -1.5900 ha         1 53Q       0.114500
     35 H13         -2.6030    -2.1290     1.8090 ha         1 53Q       0.118500
     36 H14         -3.8960    -4.2510     1.7320 ha         1 53Q       0.113000
     37 H15         -5.3960    -4.7330    -0.2020 ha         1 53Q       0.112000
     38 H16         -5.5910    -3.0860    -2.0640 ha         1 53Q       0.113000
     39 H17         -4.2960    -0.9660    -1.9960 ha         1 53Q       0.118500
     40 C4           5.3140    -0.9800     1.3230 c3         1 53Q       0.173800
     41 N1           6.1370    -0.3280     0.2540 n3         1 53Q      -0.729600
     42 C3           7.5700    -0.7160     0.3480 c3         1 53Q       0.171800
     43 C2           8.5240     0.1000    -0.5480 c3         1 53Q      -0.107600
     44 C26          5.5560    -0.4160    -1.1190 c3         1 53Q       0.171800
     45 C27          5.4890    -1.8370    -1.7220 c3         1 53Q      -0.107600
     46 H3           5.8090    -0.8110     2.2890 h1         1 53Q       0.041200
     47 H18          5.2920    -2.0680     1.1800 h1         1 53Q       0.041200
     48 H19          7.9110    -0.5800     1.3840 h1         1 53Q       0.039450
     49 H20          7.6950    -1.7820     0.1160 h1         1 53Q       0.039450
     50 H21          9.5650    -0.1520    -0.3150 hc         1 53Q       0.037033
     51 H22          8.3590    -0.1170    -1.6100 hc         1 53Q       0.037033
     52 H23          8.3870     1.1750    -0.3820 hc         1 53Q       0.037033
     53 H24          4.5430     0.0060    -1.1230 h1         1 53Q       0.039450
     54 H25          6.1310     0.2160    -1.8080 h1         1 53Q       0.039450
     55 H26          6.4900    -2.2700    -1.8290 hc         1 53Q       0.037033
     56 H27          4.8820    -2.5050    -1.1010 hc         1 53Q       0.037033
     57 H28          5.0320    -1.7970    -2.7180 hc         1 53Q       0.037033
@<TRIPOS>BOND
     1     1    23 1   
     2     1    24 1   
     3     1    25 1   
     4     1    40 1   
     5     2     3 ar  
     6     2     7 ar  
     7     2    23 1   
     8     3     4 ar  
     9     3    26 1   
    10     4     5 ar  
    11     4    27 1   
    12     5     6 ar  
    13     5     8 1   
    14     6     7 ar  
    15     6    28 1   
    16     7    29 1   
    17     8     9 2   
    18     8    17 1   
    19     9    10 1   
    20     9    12 1   
    21    10    11 ar  
    22    10    13 ar  
    23    11    16 ar  
    24    11    30 1   
    25    13    14 ar  
    26    13    31 1   
    27    14    15 ar  
    28    14    32 1   
    29    15    16 ar  
    30    15    33 1   
    31    16    34 1   
    32    17    18 ar  
    33    17    22 ar  
    34    18    19 ar  
    35    18    35 1   
    36    19    20 ar  
    37    19    36 1   
    38    20    21 ar  
    39    20    37 1   
    40    21    22 ar  
    41    21    38 1   
    42    22    39 1   
    43    40    41 1   
    44    40    46 1   
    45    40    47 1   
    46    41    42 1   
    47    41    44 1   
    48    42    43 1   
    49    42    48 1   
    50    42    49 1   
    51    43    50 1   
    52    43    51 1   
    53    43    52 1   
    54    44    45 1   
    55    44    53 1   
    56    44    54 1   
    57    45    55 1   
    58    45    56 1   
    59    45    57 1   
@<TRIPOS>SUBSTRUCTURE
     1 53Q         1 TEMP              0 ****  ****    0 ROOT
