@<TRIPOS>MOLECULE
53R
   49    51     1     0     0
SMALL
bcc


@<TRIPOS>ATOM
      1 C20         -5.1540    -0.0050    -1.4540 ca         1 53R      -0.116000
      2 C21         -6.3740     0.4770    -1.9050 ca         1 53R      -0.129500
      3 C22         -6.9610     1.5760    -1.2920 ca         1 53R      -0.124000
      4 C23         -6.3180     2.1880    -0.2240 ca         1 53R      -0.129500
      5 C24         -5.0980     1.7050     0.2270 ca         1 53R      -0.116000
      6 C25         -4.4980     0.6010    -0.3810 cp         1 53R      -0.038000
      7 C18         -3.1970     0.0880     0.0980 cp         1 53R       0.006000
      8 C19         -2.2030     0.9660     0.5200 ca         1 53R      -0.152000
      9 C17         -2.9570    -1.2870     0.1240 ca         1 53R      -0.208000
     10 C16         -1.7300    -1.7720     0.5670 ca         1 53R       0.138100
     11 O17         -1.4130    -3.0780     0.6300 os         1 53R      -0.319900
     12 C2          -2.3670    -4.0300     0.2040 c3         1 53R       0.125700
     13 C15         -0.7420    -0.8820     0.9890 ca         1 53R      -0.160000
     14 C14         -0.9770     0.4840     0.9650 ca         1 53R      -0.040300
     15 C12          0.0730     1.4600     1.4610 c3         1 53R       0.078700
     16 C13          0.0730     1.5280     2.9950 c3         1 53R      -0.081100
     17 C11          1.3950     1.1130     0.9470 c1         1 53R      -0.163100
     18 C10          2.4820     0.7830     0.5370 cg         1 53R      -0.078000
     19 C6           3.7220     0.3330     0.0220 ca         1 53R      -0.357600
     20 C5           4.9240     1.0110     0.2200 ca         1 53R       0.552600
     21 C8           4.9520     2.2840     1.0020 c3         1 53R      -0.153400
     22 N4           6.0740     0.5670    -0.2680 nb         1 53R      -0.822000
     23 C3           6.0310    -0.5750    -0.9670 ca         1 53R       0.960900
     24 N7           7.1930    -1.0090    -1.4820 nv         1 53R      -0.963500
     25 N2           4.9490    -1.3100    -1.2150 nb         1 53R      -0.869000
     26 C1           3.7950    -0.8680    -0.7280 ca         1 53R       0.772200
     27 N9           2.7000    -1.6100    -0.9480 nv         1 53R      -0.957500
     28 H20         -4.7000    -0.8500    -1.9570 ha         1 53R       0.132000
     29 H21         -6.8640    -0.0040    -2.7420 ha         1 53R       0.131000
     30 H22         -7.9130     1.9520    -1.6420 ha         1 53R       0.131000
     31 H23         -6.7710     3.0400     0.2670 ha         1 53R       0.131000
     32 H24         -4.6180     2.1810     1.0730 ha         1 53R       0.132000
     33 H19         -2.3690     2.0350     0.4760 ha         1 53R       0.136000
     34 H17         -3.7440    -1.9630    -0.1830 ha         1 53R       0.138000
     35 H2          -3.2790    -3.9930     0.8060 h1         1 53R       0.041033
     36 H2A         -2.6340    -3.9000    -0.8480 h1         1 53R       0.041033
     37 H2B         -1.9050    -5.0060     0.3300 h1         1 53R       0.041033
     38 H15          0.2070    -1.2730     1.3370 ha         1 53R       0.152000
     39 H12         -0.1910     2.4530     1.0830 hc         1 53R       0.065700
     40 H13          0.7950     2.2650     3.3460 hc         1 53R       0.042033
     41 H13A        -0.9140     1.8170     3.3560 hc         1 53R       0.042033
     42 H13B         0.3290     0.5620     3.4280 hc         1 53R       0.042033
     43 H8           4.5560     2.1320     2.0080 hc         1 53R       0.057033
     44 H8A          5.9670     2.6660     1.0790 hc         1 53R       0.057033
     45 H8B          4.3270     3.0440     0.5310 hc         1 53R       0.057033
     46 HN7          8.0500    -0.5440    -1.2390 hn         1 53R       0.446300
     47 HN7A         7.2440    -1.9090    -1.9230 hn         1 53R       0.446300
     48 HN9          1.7860    -1.2450    -0.7410 hn         1 53R       0.443300
     49 HN9A         2.7550    -2.3900    -1.5800 hn         1 53R       0.443300
@<TRIPOS>BOND
     1     1     2 ar  
     2     1     6 ar  
     3     1    28 1   
     4     2     3 ar  
     5     2    29 1   
     6     3     4 ar  
     7     3    30 1   
     8     4     5 ar  
     9     4    31 1   
    10     5     6 ar  
    11     5    32 1   
    12     6     7 1   
    13     7     8 ar  
    14     7     9 ar  
    15     8    14 ar  
    16     8    33 1   
    17     9    10 ar  
    18     9    34 1   
    19    10    11 1   
    20    10    13 ar  
    21    11    12 1   
    22    12    35 1   
    23    12    36 1   
    24    12    37 1   
    25    13    14 ar  
    26    13    38 1   
    27    14    15 1   
    28    15    16 1   
    29    15    17 1   
    30    15    39 1   
    31    16    40 1   
    32    16    41 1   
    33    16    42 1   
    34    17    18 3   
    35    18    19 1   
    36    19    20 ar  
    37    19    26 ar  
    38    20    21 1   
    39    20    22 ar  
    40    21    43 1   
    41    21    44 1   
    42    21    45 1   
    43    22    23 ar  
    44    23    24 1   
    45    23    25 ar  
    46    24    46 1   
    47    24    47 1   
    48    25    26 ar  
    49    26    27 1   
    50    27    48 1   
    51    27    49 1   
@<TRIPOS>SUBSTRUCTURE
     1 53R         1 TEMP              0 ****  ****    0 ROOT
