@<TRIPOS>MOLECULE
53R
   49    51     1     0     0
SMALL
No Charge or Current Charge


@<TRIPOS>ATOM
      1 C20         -4.9240    -0.6520    -1.4730 ca         1 53R      -0.098000
      2 C21         -6.0600    -0.3410    -2.2400 ca         1 53R      -0.111500
      3 C22         -6.6450     0.9320    -2.1480 ca         1 53R      -0.106000
      4 C23         -6.0920     1.8940    -1.2880 ca         1 53R      -0.111500
      5 C24         -4.9550     1.5830    -0.5220 ca         1 53R      -0.098000
      6 C25         -4.3470     0.3040    -0.5980 cp         1 53R      -0.038000
      7 C18         -3.1350    -0.0270     0.2200 cp         1 53R       0.006000
      8 C19         -2.1400     0.9480     0.4760 ca         1 53R      -0.134000
      9 C17         -2.9500    -1.3250     0.7580 ca         1 53R      -0.190000
     10 C16         -1.8080    -1.6360     1.5250 ca         1 53R       0.138100
     11 O17         -1.5920    -2.8890     2.0640 os         1 53R      -0.343100
     12 C2          -2.5160    -3.9760     1.8760 c3         1 53R       0.148900
     13 C15         -0.8410    -0.6490     1.7610 ca         1 53R      -0.142000
     14 C14         -0.9950     0.6520     1.2420 ca         1 53R      -0.040300
     15 C12          0.0630     1.7310     1.4920 c3         1 53R       0.078700
     16 C13          0.2910     1.9900     2.9980 c3         1 53R      -0.081100
     17 C11          1.3180     1.3690     0.8150 c1         1 53R      -0.163100
     18 C10          2.3530     1.0270     0.2800 cg         1 53R      -0.078000
     19 C6           3.5840     0.6040    -0.3380 ca         1 53R      -0.227000
     20 C5           4.5880    -0.0630     0.4010 ca         1 53R       0.224300
     21 C8           4.4470    -0.3780     1.8850 c3         1 53R      -0.153400
     22 N4           5.7380    -0.4560    -0.1850 nb         1 53R      -0.296000
     23 C3           5.8660    -0.1790    -1.4870 ca         1 53R       0.434900
     24 N7           7.0160    -0.5760    -2.0690 nv         1 53R      -1.073900
     25 N2           4.9930     0.4380    -2.2850 nb         1 53R      -0.343000
     26 C1           3.8550     0.8250    -1.7040 ca         1 53R       0.443900
     27 N9           2.9860     1.4530    -2.5380 nv         1 53R      -1.067900
     28 H20         -4.4790    -1.6390    -1.5700 ha         1 53R       0.114000
     29 H21         -6.4850    -1.0870    -2.9080 ha         1 53R       0.113000
     30 H22         -7.5250     1.1720    -2.7410 ha         1 53R       0.113000
     31 H23         -6.5440     2.8800    -1.2130 ha         1 53R       0.113000
     32 H24         -4.5500     2.3380     0.1470 ha         1 53R       0.114000
     33 H19         -2.2540     1.9450     0.0590 ha         1 53R       0.118000
     34 H17         -3.7130    -2.0750     0.5800 ha         1 53R       0.120000
     35 H2          -3.5010    -3.7280     2.2920 h1         1 53R       0.041033
     36 H2A         -2.6310    -4.2100     0.8100 h1         1 53R       0.041033
     37 H2B         -2.1500    -4.8770     2.3840 h1         1 53R       0.041033
     38 H15          0.0390    -0.9030     2.3470 ha         1 53R       0.134000
     39 H12         -0.2740     2.6780     1.0530 hc         1 53R       0.065700
     40 H13          0.9950     2.8180     3.1470 hc         1 53R       0.042033
     41 H13A        -0.6540     2.2580     3.4860 hc         1 53R       0.042033
     42 H13B         0.6970     1.1040     3.5010 hc         1 53R       0.042033
     43 H8           3.5750    -1.0170     2.0680 hc         1 53R       0.057033
     44 H8A          5.3270    -0.8990     2.2800 hc         1 53R       0.057033
     45 H8B          4.3190     0.5420     2.4680 hc         1 53R       0.057033
     46 HN7          7.5930    -1.2520    -1.5730 hn         1 53R       0.501500
     47 HN7A         7.0530    -0.6080    -3.0850 hn         1 53R       0.501500
     48 HN9          2.2120     1.9610    -2.1170 hn         1 53R       0.498500
     49 HN9A         3.3380     1.8040    -3.4240 hn         1 53R       0.498500
@<TRIPOS>BOND
     1     1     2 ar  
     2     1     6 ar  
     3     1    28 1   
     4     2     3 ar  
     5     2    29 1   
     6     3     4 ar  
     7     3    30 1   
     8     4     5 ar  
     9     4    31 1   
    10     5     6 ar  
    11     5    32 1   
    12     6     7 1   
    13     7     8 ar  
    14     7     9 ar  
    15     8    14 ar  
    16     8    33 1   
    17     9    10 ar  
    18     9    34 1   
    19    10    11 1   
    20    10    13 ar  
    21    11    12 1   
    22    12    35 1   
    23    12    36 1   
    24    12    37 1   
    25    13    14 ar  
    26    13    38 1   
    27    14    15 1   
    28    15    16 1   
    29    15    17 1   
    30    15    39 1   
    31    16    40 1   
    32    16    41 1   
    33    16    42 1   
    34    17    18 3   
    35    18    19 1   
    36    19    20 ar  
    37    19    26 ar  
    38    20    21 1   
    39    20    22 ar  
    40    21    43 1   
    41    21    44 1   
    42    21    45 1   
    43    22    23 ar  
    44    23    24 1   
    45    23    25 ar  
    46    24    46 1   
    47    24    47 1   
    48    25    26 ar  
    49    26    27 1   
    50    27    48 1   
    51    27    49 1   
@<TRIPOS>SUBSTRUCTURE
     1 53R         1 TEMP              0 ****  ****    0 ROOT
