@<TRIPOS>MOLECULE
53S
   52    54     1     0     0
SMALL
No Charge or Current Charge


@<TRIPOS>ATOM
      1 C6          -3.8610    -0.6190    -0.0510 ca         1 53S      -0.224000
      2 C5          -5.1130    -0.7930     0.5830 ca         1 53S       0.222300
      3 C2           2.3580     4.6540     0.0850 c3         1 53S       0.148900
      4 C20          5.3540     0.2890    -0.2070 ca         1 53S      -0.095000
      5 C21          6.4860    -0.3500    -0.7410 ca         1 53S      -0.112500
      6 C22          6.3690    -1.6140    -1.3480 ca         1 53S      -0.069300
      7 C26          7.5950    -2.3060    -1.9220 c3         1 53S      -0.047800
      8 C23          5.1070    -2.2320    -1.4100 ca         1 53S      -0.112500
      9 C24          3.9760    -1.5930    -0.8740 ca         1 53S      -0.095000
     10 C25          4.0740    -0.3180    -0.2620 cp         1 53S      -0.043000
     11 C18          2.8670     0.3630     0.3080 cp         1 53S       0.009000
     12 C19          1.8420    -0.3810     0.9430 ca         1 53S      -0.132000
     13 C17          2.7170     1.7690     0.2280 ca         1 53S      -0.188000
     14 C16          1.5790     2.4090     0.7610 ca         1 53S       0.139100
     15 O17          1.3950     3.7760     0.6960 os         1 53S      -0.346100
     16 C15          0.5810     1.6450     1.3830 ca         1 53S      -0.140000
     17 C14          0.7020     0.2450     1.4850 ca         1 53S      -0.039300
     18 C12         -0.3830    -0.5950     2.1670 c3         1 53S       0.078700
     19 C13         -0.6820    -0.1220     3.6070 c3         1 53S      -0.082100
     20 C11         -1.6020    -0.6070     1.3440 c1         1 53S      -0.161100
     21 C10         -2.6310    -0.6100     0.7000 cg         1 53S      -0.080000
     22 C8          -5.2550    -0.9760     2.0890 c3         1 53S      -0.153400
     23 N4          -6.2580    -0.8080    -0.1290 nb         1 53S      -0.293000
     24 C3          -6.1370    -0.6480    -1.4520 ca         1 53S       0.426900
     25 N7          -7.2850    -0.6670    -2.1620 nv         1 53S      -1.060900
     26 N2          -5.0190    -0.4780    -2.1600 nb         1 53S      -0.341000
     27 C1          -3.8860    -0.4610    -1.4520 ca         1 53S       0.445900
     28 N9          -2.7640    -0.2860    -2.1960 nv         1 53S      -1.071900
     29 H2           3.3270     4.5840     0.5950 h1         1 53S       0.041033
     30 H2A          2.4970     4.4040    -0.9740 h1         1 53S       0.041033
     31 H2B          2.0160     5.6940     0.1470 h1         1 53S       0.041033
     32 H21          7.4560     0.1370    -0.6800 ha         1 53S       0.111500
     33 H26          8.0950    -2.9120    -1.1580 hc         1 53S       0.043033
     34 H26A         7.3270    -2.9700    -2.7540 hc         1 53S       0.043033
     35 H26B         8.3220    -1.5800    -2.3040 hc         1 53S       0.043033
     36 H23          5.0010    -3.2100    -1.8750 ha         1 53S       0.111500
     37 H24          3.0100    -2.0870    -0.9480 ha         1 53S       0.114000
     38 H19          1.9440    -1.4590     1.0270 ha         1 53S       0.118000
     39 H17          3.4890     2.3470    -0.2700 ha         1 53S       0.119000
     40 H15         -0.2950     2.1490     1.7820 ha         1 53S       0.125000
     41 H12         -0.0400    -1.6350     2.2400 hc         1 53S       0.065700
     42 H13         -1.1080     0.8880     3.6190 hc         1 53S       0.042033
     43 H13A        -1.3960    -0.7970     4.0950 hc         1 53S       0.042033
     44 H13B         0.2380    -0.1130     4.2040 hc         1 53S       0.042033
     45 H8          -4.8470    -0.1130     2.6280 hc         1 53S       0.056700
     46 H8A         -6.3040    -1.0880     2.3910 hc         1 53S       0.056700
     47 H8B         -4.7170    -1.8700     2.4270 hc         1 53S       0.056700
     48 HN7         -8.1220    -1.0250    -1.7080 hn         1 53S       0.494500
     49 HN7A        -7.2260    -0.7840    -3.1700 hn         1 53S       0.494500
     50 HN9         -1.8690    -0.4800    -1.7540 hn         1 53S       0.500500
     51 HN9A        -2.8230    -0.4330    -3.2000 hn         1 53S       0.500500
     52 H20          5.4740     1.2600     0.2670 ha         1 53S       0.114000
@<TRIPOS>BOND
     1     1     2 ar  
     2     1    21 1   
     3     1    27 ar  
     4     2    22 1   
     5     2    23 ar  
     6     3    15 1   
     7     3    29 1   
     8     3    30 1   
     9     3    31 1   
    10     4     5 ar  
    11     4    10 ar  
    12     4    52 1   
    13     5     6 ar  
    14     5    32 1   
    15     6     7 1   
    16     6     8 ar  
    17     7    33 1   
    18     7    34 1   
    19     7    35 1   
    20     8     9 ar  
    21     8    36 1   
    22     9    10 ar  
    23     9    37 1   
    24    10    11 1   
    25    11    12 ar  
    26    11    13 ar  
    27    12    17 ar  
    28    12    38 1   
    29    13    14 ar  
    30    13    39 1   
    31    14    15 1   
    32    14    16 ar  
    33    16    17 ar  
    34    16    40 1   
    35    17    18 1   
    36    18    19 1   
    37    18    20 1   
    38    18    41 1   
    39    19    42 1   
    40    19    43 1   
    41    19    44 1   
    42    20    21 3   
    43    22    45 1   
    44    22    46 1   
    45    22    47 1   
    46    23    24 ar  
    47    24    25 1   
    48    24    26 ar  
    49    25    48 1   
    50    25    49 1   
    51    26    27 ar  
    52    27    28 1   
    53    28    50 1   
    54    28    51 1   
@<TRIPOS>SUBSTRUCTURE
     1 53S         1 TEMP              0 ****  ****    0 ROOT
