@<TRIPOS>MOLECULE
53S
   52    54     1     0     0
SMALL
bcc


@<TRIPOS>ATOM
      1 C6          -3.9430    -0.4050     0.1900 ca         1 53S      -0.354600
      2 C5          -4.8240    -1.4860     0.1540 ca         1 53S       0.550600
      3 C2           2.1330     4.2210    -1.0310 c3         1 53S       0.125700
      4 C20          5.3010     0.2150    -0.2230 ca         1 53S      -0.113000
      5 C21          6.4650    -0.4570    -0.5590 ca         1 53S      -0.130500
      6 C22          6.4540    -1.8180    -0.8550 ca         1 53S      -0.069300
      7 C26          7.7190    -2.5520    -1.1910 c3         1 53S      -0.047800
      8 C23          5.2300    -2.4820    -0.8050 ca         1 53S      -0.130500
      9 C24          4.0630    -1.8130    -0.4680 ca         1 53S      -0.113000
     10 C25          4.0760    -0.4510    -0.1700 cp         1 53S      -0.043000
     11 C18          2.8330     0.2620     0.1900 cp         1 53S       0.009000
     12 C19          1.8540    -0.3680     0.9570 ca         1 53S      -0.150000
     13 C17          2.6290     1.5750    -0.2360 ca         1 53S      -0.206000
     14 C16          1.4600     2.2480     0.1080 ca         1 53S       0.139100
     15 O17          1.1800     3.5110    -0.2640 os         1 53S      -0.322900
     16 C15          0.4900     1.6060     0.8760 ca         1 53S      -0.158000
     17 C14          0.6840     0.3000     1.2970 ca         1 53S      -0.039300
     18 C12         -0.3620    -0.3880     2.1540 c3         1 53S       0.078700
     19 C13         -0.4790     0.2690     3.5350 c3         1 53S      -0.082100
     20 C11         -1.6490    -0.4180     1.4630 c1         1 53S      -0.161100
     21 C10         -2.7110    -0.4350     0.8880 cg         1 53S      -0.080000
     22 C8          -4.4960    -2.7520     0.8790 c3         1 53S      -0.153400
     23 N4          -5.9710    -1.4420    -0.5090 nb         1 53S      -0.819000
     24 C3          -6.2530    -0.3010    -1.1500 ca         1 53S       0.952900
     25 N7          -7.4340    -0.2480    -1.7950 nv         1 53S      -0.950500
     26 N2          -5.4920     0.7900    -1.1920 nb         1 53S      -0.867000
     27 C1          -4.3420     0.7510    -0.5290 ca         1 53S       0.774200
     28 N9          -3.5740     1.8480    -0.5480 nv         1 53S      -0.961500
     29 H2           3.0790     4.3400    -0.4980 h1         1 53S       0.041033
     30 H2A          2.3290     3.7360    -1.9910 h1         1 53S       0.041033
     31 H2B          1.7080     5.2040    -1.2160 h1         1 53S       0.041033
     32 H21          7.4010     0.0910    -0.5850 ha         1 53S       0.129500
     33 H26          8.2070    -2.9240    -0.2880 hc         1 53S       0.043033
     34 H26A         7.5220    -3.4130    -1.8290 hc         1 53S       0.043033
     35 H26B         8.4330    -1.9070    -1.7020 hc         1 53S       0.043033
     36 H23          5.1830    -3.5380    -1.0420 ha         1 53S       0.129500
     37 H24          3.1270    -2.3600    -0.4620 ha         1 53S       0.132000
     38 H19          2.0130    -1.3790     1.3120 ha         1 53S       0.136000
     39 H17          3.3780     2.0500    -0.8560 ha         1 53S       0.137000
     40 H15         -0.4150     2.1420     1.1420 ha         1 53S       0.143000
     41 H12         -0.0430    -1.4240     2.3020 hc         1 53S       0.065700
     42 H13         -0.8030     1.3060     3.4510 hc         1 53S       0.042033
     43 H13A        -1.2010    -0.2650     4.1530 hc         1 53S       0.042033
     44 H13B         0.4850     0.2510     4.0430 hc         1 53S       0.042033
     45 H8          -4.4020    -2.5700     1.9510 hc         1 53S       0.056700
     46 H8A         -5.2720    -3.4960     0.7190 hc         1 53S       0.056700
     47 H8B         -3.5410    -3.1600     0.5450 hc         1 53S       0.056700
     48 HN7         -7.9390    -1.1030    -1.9470 hn         1 53S       0.439300
     49 HN7A        -7.6080     0.5100    -2.4320 hn         1 53S       0.439300
     50 HN9         -2.6450     1.8320    -0.1640 hn         1 53S       0.445300
     51 HN9A        -3.8200     2.6170    -1.1480 hn         1 53S       0.445300
     52 H20          5.3550     1.2700     0.0170 ha         1 53S       0.132000
@<TRIPOS>BOND
     1     1     2 ar  
     2     1    21 1   
     3     1    27 ar  
     4     2    22 1   
     5     2    23 ar  
     6     3    15 1   
     7     3    29 1   
     8     3    30 1   
     9     3    31 1   
    10     4     5 ar  
    11     4    10 ar  
    12     4    52 1   
    13     5     6 ar  
    14     5    32 1   
    15     6     7 1   
    16     6     8 ar  
    17     7    33 1   
    18     7    34 1   
    19     7    35 1   
    20     8     9 ar  
    21     8    36 1   
    22     9    10 ar  
    23     9    37 1   
    24    10    11 1   
    25    11    12 ar  
    26    11    13 ar  
    27    12    17 ar  
    28    12    38 1   
    29    13    14 ar  
    30    13    39 1   
    31    14    15 1   
    32    14    16 ar  
    33    16    17 ar  
    34    16    40 1   
    35    17    18 1   
    36    18    19 1   
    37    18    20 1   
    38    18    41 1   
    39    19    42 1   
    40    19    43 1   
    41    19    44 1   
    42    20    21 3   
    43    22    45 1   
    44    22    46 1   
    45    22    47 1   
    46    23    24 ar  
    47    24    25 1   
    48    24    26 ar  
    49    25    48 1   
    50    25    49 1   
    51    26    27 ar  
    52    27    28 1   
    53    28    50 1   
    54    28    51 1   
@<TRIPOS>SUBSTRUCTURE
     1 53S         1 TEMP              0 ****  ****    0 ROOT
