@<TRIPOS>MOLECULE
53T
   55    57     1     0     0
SMALL
No Charge or Current Charge


@<TRIPOS>ATOM
      1 N2           6.2020    -1.4460     0.5000 nb         1 53T      -0.340000
      2 C8           3.1110     1.4010     1.3360 c3         1 53T      -0.155400
      3 C10          2.8250    -0.6190    -0.8440 cg         1 53T      -0.083000
      4 C11          1.8070    -0.6240    -1.5060 c1         1 53T      -0.159100
      5 C12          0.5510    -0.5730    -2.2680 c3         1 53T       0.078700
      6 C13          0.7780    -0.0180    -3.6920 c3         1 53T      -0.082100
      7 C1           5.0900    -1.4780    -0.2380 ca         1 53T       0.441900
      8 C2          -1.9060     4.5320     0.4260 c3         1 53T       0.148900
      9 C3           6.2360    -0.5090     1.4500 ca         1 53T       0.426900
     10 C5           4.1770     0.3650     0.9980 ca         1 53T       0.223300
     11 C6           4.0190    -0.5830    -0.0390 ca         1 53T      -0.223000
     12 C21         -6.2850    -0.3180     0.7240 ca         1 53T      -0.074300
     13 C20         -5.1220     0.3160     0.2500 ca         1 53T      -0.102500
     14 C22         -6.2110    -1.6450     1.1840 ca         1 53T      -0.108000
     15 C23         -4.9860    -2.3340     1.1780 ca         1 53T      -0.074300
     16 C27         -4.9100    -3.7690     1.6780 c3         1 53T      -0.046300
     17 C24         -3.8300    -1.6900     0.7010 ca         1 53T      -0.102500
     18 C25         -3.8730    -0.3540     0.2280 cp         1 53T      -0.032000
     19 C18         -2.6380     0.3270    -0.2790 cp         1 53T       0.006000
     20 C19         -1.6570    -0.3910    -1.0060 ca         1 53T      -0.136000
     21 C17         -2.4170     1.7060    -0.0440 ca         1 53T      -0.189000
     22 C16         -1.2530     2.3460    -0.5190 ca         1 53T       0.140100
     23 O17         -0.9990     3.6850    -0.3020 os         1 53T      -0.343100
     24 C15         -0.3010     1.6090    -1.2370 ca         1 53T      -0.132000
     25 C14         -0.4920     0.2360    -1.4900 ca         1 53T      -0.041300
     26 N4           5.2990     0.3980     1.7460 nb         1 53T      -0.291000
     27 N7           7.3600    -0.4710     2.1980 nv         1 53T      -1.061900
     28 N9           5.0810    -2.4400    -1.1970 nv         1 53T      -1.068900
     29 H8           2.1680     0.9150     1.6140 hc         1 53T       0.059033
     30 H8A          3.4120     2.0400     2.1750 hc         1 53T       0.059033
     31 H8B          2.9130     2.0530     0.4780 hc         1 53T       0.059033
     32 H12          0.2020    -1.6070    -2.3790 hc         1 53T       0.064700
     33 H13          1.4740    -0.6550    -4.2500 hc         1 53T       0.041033
     34 H13A        -0.1690     0.0130    -4.2440 hc         1 53T       0.041033
     35 H13B         1.1900     0.9980    -3.6650 hc         1 53T       0.041033
     36 H2          -2.0420     4.1680     1.4520 h1         1 53T       0.040367
     37 H2A         -1.5120     5.5550     0.4780 h1         1 53T       0.040367
     38 H2B         -2.8850     4.5710    -0.0680 h1         1 53T       0.040367
     39 H26         -8.1320     0.2960    -0.2310 hc         1 53T       0.041867
     40 H26A        -8.2770     0.0520     1.5180 hc         1 53T       0.041867
     41 H26B        -7.4720     1.4970     0.8930 hc         1 53T       0.041867
     42 H20         -5.1900     1.3360    -0.1210 ha         1 53T       0.113500
     43 H22         -7.1090    -2.1410     1.5470 ha         1 53T       0.110000
     44 H27         -5.0440    -4.4780     0.8520 hc         1 53T       0.041867
     45 H27A        -3.9410    -3.9780     2.1460 hc         1 53T       0.041867
     46 H27B        -5.6860    -3.9750     2.4250 hc         1 53T       0.041867
     47 H24         -2.8850    -2.2260     0.7080 ha         1 53T       0.113500
     48 H19         -1.8120    -1.4470    -1.2080 ha         1 53T       0.116000
     49 H17         -3.1550     2.2610     0.5260 ha         1 53T       0.120000
     50 H15          0.5950     2.1110    -1.5920 ha         1 53T       0.133000
     51 HN7          8.1750    -0.9750     1.8610 hn         1 53T       0.495500
     52 HN7A         7.5360     0.3560     2.7640 hn         1 53T       0.495500
     53 HN9          5.9660    -2.8750    -1.4450 hn         1 53T       0.495500
     54 HN9A         4.3770    -2.3790    -1.9280 hn         1 53T       0.495500
     55 C26         -7.6130     0.4220     0.7270 c3         1 53T      -0.046300
@<TRIPOS>BOND
     1     1     7 ar  
     2     1     9 ar  
     3     2    10 1   
     4     2    29 1   
     5     2    30 1   
     6     2    31 1   
     7     3     4 3   
     8     3    11 1   
     9     4     5 1   
    10     5     6 1   
    11     5    25 1   
    12     5    32 1   
    13     6    33 1   
    14     6    34 1   
    15     6    35 1   
    16     7    11 ar  
    17     7    28 1   
    18     8    23 1   
    19     8    36 1   
    20     8    37 1   
    21     8    38 1   
    22     9    26 ar  
    23     9    27 1   
    24    10    11 ar  
    25    10    26 ar  
    26    12    13 ar  
    27    12    14 ar  
    28    12    55 1   
    29    13    18 ar  
    30    13    42 1   
    31    14    15 ar  
    32    14    43 1   
    33    15    16 1   
    34    15    17 ar  
    35    16    44 1   
    36    16    45 1   
    37    16    46 1   
    38    17    18 ar  
    39    17    47 1   
    40    18    19 1   
    41    19    20 ar  
    42    19    21 ar  
    43    20    25 ar  
    44    20    48 1   
    45    21    22 ar  
    46    21    49 1   
    47    22    23 1   
    48    22    24 ar  
    49    24    25 ar  
    50    24    50 1   
    51    27    51 1   
    52    27    52 1   
    53    28    53 1   
    54    28    54 1   
    55    39    55 1   
    56    40    55 1   
    57    41    55 1   
@<TRIPOS>SUBSTRUCTURE
     1 53T         1 TEMP              0 ****  ****    0 ROOT
