@<TRIPOS>MOLECULE
53T
   55    57     1     0     0
SMALL
abcg2


@<TRIPOS>ATOM
      1 N2           6.5890    -1.0030     0.1860 nb         1 53T      -0.340000
      2 C8           3.6350     1.9550     0.7700 c3         1 53T      -0.155400
      3 C10          3.0210    -0.5300    -0.6110 cg         1 53T      -0.083000
      4 C11          1.9110    -0.7450    -1.0340 c1         1 53T      -0.159100
      5 C12          0.5610    -0.9690    -1.5440 c3         1 53T       0.078700
      6 C13          0.4830    -0.6910    -3.0530 c3         1 53T      -0.082100
      7 C1           5.3680    -1.2310    -0.2840 ca         1 53T       0.441900
      8 C2          -1.7060     3.9740     1.3070 c3         1 53T       0.148900
      9 C3           6.7880     0.1480     0.8250 ca         1 53T       0.426900
     10 C5           4.6600     0.8880     0.5600 ca         1 53T       0.223300
     11 C6           4.3250    -0.2860    -0.1150 ca         1 53T      -0.223000
     12 C21         -6.5020    -0.1180     0.2040 ca         1 53T      -0.074300
     13 C20         -5.2150     0.3810     0.0190 ca         1 53T      -0.102500
     14 C22         -6.6520    -1.4490     0.5760 ca         1 53T      -0.108000
     15 C23         -5.5510    -2.2850     0.7560 ca         1 53T      -0.074300
     16 C27         -5.7450    -3.7210     1.1500 c3         1 53T      -0.046300
     17 C24         -4.2790    -1.7620     0.5600 ca         1 53T      -0.102500
     18 C25         -4.0950    -0.4280     0.1930 cp         1 53T      -0.032000
     19 C18         -2.7350     0.1160    -0.0030 cp         1 53T       0.006000
     20 C19         -1.7500    -0.6470    -0.6220 ca         1 53T      -0.136000
     21 C17         -2.4300     1.4060     0.4380 ca         1 53T      -0.189000
     22 C16         -1.1500     1.9200     0.2550 ca         1 53T       0.140100
     23 O17         -0.7650     3.1460     0.6530 os         1 53T      -0.343100
     24 C15         -0.1710     1.1430    -0.3650 ca         1 53T      -0.132000
     25 C14         -0.4670    -0.1360    -0.8020 ca         1 53T      -0.041300
     26 N4           5.8800     1.1100     1.0310 nb         1 53T      -0.291000
     27 N7           8.0160     0.3590     1.3350 nv         1 53T      -1.061900
     28 N9           5.1480    -2.3970    -0.9080 nv         1 53T      -1.068900
     29 H8           2.7760     1.5710     1.3230 hc         1 53T       0.059033
     30 H8A          4.0560     2.7940     1.3180 hc         1 53T       0.059033
     31 H8B          3.2540     2.3170    -0.1870 hc         1 53T       0.059033
     32 H12          0.3140    -2.0240    -1.3850 hc         1 53T       0.064700
     33 H13          1.1880    -1.3180    -3.5980 hc         1 53T       0.041033
     34 H13A        -0.5200    -0.9040    -3.4220 hc         1 53T       0.041033
     35 H13B         0.7130     0.3530    -3.2650 hc         1 53T       0.041033
     36 H2          -2.0620     3.5300     2.2400 h1         1 53T       0.040367
     37 H2A         -1.1920     4.9040     1.5360 h1         1 53T       0.040367
     38 H2B         -2.5670     4.1970     0.6720 h1         1 53T       0.040367
     39 H26         -7.9360     0.8230    -1.0890 hc         1 53T       0.041867
     40 H26A        -8.5810     0.3760     0.4830 hc         1 53T       0.041867
     41 H26B        -7.5210     1.7770     0.3250 hc         1 53T       0.041867
     42 H20         -5.0870     1.4150    -0.2810 ha         1 53T       0.113500
     43 H22         -7.6500    -1.8450     0.7360 ha         1 53T       0.110000
     44 H27         -6.1600    -4.3010     0.3240 hc         1 53T       0.041867
     45 H27A        -4.8040    -4.1880     1.4380 hc         1 53T       0.041867
     46 H27B        -6.4380    -3.8140     1.9870 hc         1 53T       0.041867
     47 H24         -3.4160    -2.3970     0.7220 ha         1 53T       0.113500
     48 H19         -1.9820    -1.6400    -0.9880 ha         1 53T       0.116000
     49 H17         -3.1930     1.9800     0.9480 ha         1 53T       0.120000
     50 H15          0.8250     1.5520    -0.4920 ha         1 53T       0.133000
     51 HN7          8.7720    -0.2410     1.0550 hn         1 53T       0.495500
     52 HN7A         8.2540     1.2790     1.6620 hn         1 53T       0.495500
     53 HN9          5.9310    -2.9850    -1.1350 hn         1 53T       0.495500
     54 HN9A         4.2920    -2.5510    -1.4130 hn         1 53T       0.495500
     55 C26         -7.6970     0.7600    -0.0250 c3         1 53T      -0.046300
@<TRIPOS>BOND
     1     1     7 ar  
     2     1     9 ar  
     3     2    10 1   
     4     2    29 1   
     5     2    30 1   
     6     2    31 1   
     7     3     4 3   
     8     3    11 1   
     9     4     5 1   
    10     5     6 1   
    11     5    25 1   
    12     5    32 1   
    13     6    33 1   
    14     6    34 1   
    15     6    35 1   
    16     7    11 ar  
    17     7    28 1   
    18     8    23 1   
    19     8    36 1   
    20     8    37 1   
    21     8    38 1   
    22     9    26 ar  
    23     9    27 1   
    24    10    11 ar  
    25    10    26 ar  
    26    12    13 ar  
    27    12    14 ar  
    28    12    55 1   
    29    13    18 ar  
    30    13    42 1   
    31    14    15 ar  
    32    14    43 1   
    33    15    16 1   
    34    15    17 ar  
    35    16    44 1   
    36    16    45 1   
    37    16    46 1   
    38    17    18 ar  
    39    17    47 1   
    40    18    19 1   
    41    19    20 ar  
    42    19    21 ar  
    43    20    25 ar  
    44    20    48 1   
    45    21    22 ar  
    46    21    49 1   
    47    22    23 1   
    48    22    24 ar  
    49    24    25 ar  
    50    24    50 1   
    51    27    51 1   
    52    27    52 1   
    53    28    53 1   
    54    28    54 1   
    55    39    55 1   
    56    40    55 1   
    57    41    55 1   
@<TRIPOS>SUBSTRUCTURE
     1 53T         1 TEMP              0 ****  ****    0 ROOT
