@<TRIPOS>MOLECULE
53U
   51    53     1     0     0
SMALL
No Charge or Current Charge


@<TRIPOS>ATOM
      1 N1           3.0900     1.9940     1.1600 n8         1 53U      -0.982200
      2 C2           2.7000     0.7250     0.4460 c3         1 53U       0.103500
      3 C3           1.1580     0.5750     0.1500 c          1 53U       0.566100
      4 O1           0.4640     1.5630    -0.0730 o          1 53U      -0.619100
      5 C1           3.5200     0.5610    -0.8640 c3         1 53U      -0.025100
      6 C16          5.0140     0.3470    -0.6290 ca         1 53U      -0.067300
      7 C17          5.4810    -0.8790    -0.1140 ca         1 53U      -0.098500
      8 C21          5.9410     1.3630    -0.9390 ca         1 53U      -0.098500
      9 C18          6.8560    -1.0850     0.0930 ca         1 53U      -0.110500
     10 C20          7.3160     1.1560    -0.7310 ca         1 53U      -0.110500
     11 C19          7.7740    -0.0670    -0.2150 ca         1 53U      -0.110000
     12 N2           0.5750    -0.7150     0.1600 n          1 53U      -0.396800
     13 C7          -0.8910    -0.9370    -0.0210 c5         1 53U       0.029700
     14 C8          -1.8190    -0.1780     0.9850 c          1 53U       0.601100
     15 O2          -1.5260     0.2650     2.0900 o          1 53U      -0.601100
     16 C6          -1.0130    -2.4650     0.2670 c5         1 53U      -0.085400
     17 C5           0.3400    -3.0080    -0.2510 c5         1 53U      -0.094400
     18 C4           1.3350    -1.9740     0.3300 c5         1 53U       0.107000
     19 N3          -3.0830    -0.0720     0.4470 ns         1 53U      -0.495900
     20 C9          -4.2060     0.5710     1.1180 c3         1 53U       0.152300
     21 C10         -5.4710     0.4670     0.2800 ca         1 53U      -0.116300
     22 C11         -6.3190    -0.6500     0.4130 ca         1 53U      -0.094000
     23 C12         -7.4860    -0.7500    -0.3660 ca         1 53U      -0.114500
     24 C13         -7.8090     0.2650    -1.2820 ca         1 53U      -0.101000
     25 C14         -6.9650     1.3800    -1.4200 ca         1 53U      -0.114500
     26 C15         -5.7980     1.4800    -0.6420 ca         1 53U      -0.094000
     27 HN1          2.7220     2.7900     0.6250 hn         1 53U       0.410000
     28 HN1A         2.5670     2.0560     2.0430 hn         1 53U       0.410000
     29 H2           2.9700    -0.1050     1.1130 h1         1 53U       0.073700
     30 H1           3.1270    -0.2880    -1.4340 hc         1 53U       0.052200
     31 H1A          3.3520     1.4380    -1.5010 hc         1 53U       0.052200
     32 H17          4.7790    -1.6750     0.1250 ha         1 53U       0.107500
     33 H21          5.5960     2.3140    -1.3380 ha         1 53U       0.107500
     34 H18          7.2100    -2.0340     0.4920 ha         1 53U       0.110000
     35 H20          8.0260     1.9450    -0.9710 ha         1 53U       0.110000
     36 H19          8.8390    -0.2260    -0.0550 ha         1 53U       0.111000
     37 H7          -1.1850    -0.6930    -1.0500 h1         1 53U       0.064700
     38 H6          -1.8740    -2.9200    -0.2370 hc         1 53U       0.064200
     39 H6A         -1.1230    -2.6670     1.3400 hc         1 53U       0.064200
     40 H5           0.3710    -3.0140    -1.3470 hc         1 53U       0.056700
     41 H5A          0.5490    -4.0280     0.0910 hc         1 53U       0.056700
     42 H4           2.2850    -1.9850    -0.2180 h1         1 53U       0.053700
     43 H4A          1.5390    -2.1620     1.3920 h1         1 53U       0.053700
     44 HN3         -3.2360    -0.4710    -0.4710 hn         1 53U       0.319500
     45 H9          -4.3650     0.0920     2.0930 h1         1 53U       0.058700
     46 H9A         -3.9600     1.6270     1.2950 h1         1 53U       0.058700
     47 H11         -6.0740    -1.4420     1.1180 ha         1 53U       0.117000
     48 H12         -8.1380    -1.6140    -0.2590 ha         1 53U       0.114500
     49 H13         -8.7120     0.1880    -1.8850 ha         1 53U       0.114000
     50 H14         -7.2140     2.1660    -2.1300 ha         1 53U       0.114500
     51 H15         -5.1490     2.3460    -0.7560 ha         1 53U       0.117000
@<TRIPOS>BOND
     1     1     2 1   
     2     1    27 1   
     3     1    28 1   
     4     2     3 1   
     5     2     5 1   
     6     2    29 1   
     7     3     4 2   
     8     3    12 1   
     9     5     6 1   
    10     5    30 1   
    11     5    31 1   
    12     6     7 ar  
    13     6     8 ar  
    14     7     9 ar  
    15     7    32 1   
    16     8    10 ar  
    17     8    33 1   
    18     9    11 ar  
    19     9    34 1   
    20    10    11 ar  
    21    10    35 1   
    22    11    36 1   
    23    12    13 1   
    24    12    18 1   
    25    13    14 1   
    26    13    16 1   
    27    13    37 1   
    28    14    15 2   
    29    14    19 1   
    30    16    17 1   
    31    16    38 1   
    32    16    39 1   
    33    17    18 1   
    34    17    40 1   
    35    17    41 1   
    36    18    42 1   
    37    18    43 1   
    38    19    20 1   
    39    19    44 1   
    40    20    21 1   
    41    20    45 1   
    42    20    46 1   
    43    21    22 ar  
    44    21    26 ar  
    45    22    23 ar  
    46    22    47 1   
    47    23    24 ar  
    48    23    48 1   
    49    24    25 ar  
    50    24    49 1   
    51    25    26 ar  
    52    25    50 1   
    53    26    51 1   
@<TRIPOS>SUBSTRUCTURE
     1 53U         1 TEMP              0 ****  ****    0 ROOT
