@<TRIPOS>MOLECULE
53U
   51    53     1     0     0
SMALL
bcc


@<TRIPOS>ATOM
      1 N1           2.6610     1.8260     0.9050 n8         1 53U      -0.871800
      2 C2           2.4330     0.4800     0.4370 c3         1 53U       0.103500
      3 C3           0.9550     0.1640     0.1960 c          1 53U       0.633100
      4 O1           0.1740     1.0400    -0.1570 o          1 53U      -0.619100
      5 C1           3.1830     0.2470    -0.8870 c3         1 53U      -0.025100
      6 C16          4.6710     0.3680    -0.7350 ca         1 53U      -0.067300
      7 C17          5.4200    -0.7150    -0.2800 ca         1 53U      -0.116500
      8 C21          5.3330     1.5570    -1.0240 ca         1 53U      -0.116500
      9 C18          6.7950    -0.6150    -0.1170 ca         1 53U      -0.128500
     10 C20          6.7090     1.6620    -0.8680 ca         1 53U      -0.128500
     11 C19          7.4450     0.5760    -0.4110 ca         1 53U      -0.128000
     12 N2           0.5520    -1.1070     0.3420 n          1 53U      -0.463800
     13 C7          -0.8360    -1.4570     0.0980 c5         1 53U       0.029700
     14 C8          -1.7700    -0.6380     0.9800 c          1 53U       0.668100
     15 O2          -1.5180    -0.4230     2.1550 o          1 53U      -0.601100
     16 C6          -0.9030    -2.9490     0.4570 c5         1 53U      -0.085400
     17 C5           0.5280    -3.4310     0.2490 c5         1 53U      -0.094400
     18 C4           1.3590    -2.2550     0.7410 c5         1 53U       0.107000
     19 N3          -2.9090    -0.2520     0.3920 ns         1 53U      -0.562900
     20 C9          -3.9190     0.5210     1.0910 c3         1 53U       0.152300
     21 C10         -5.1360     0.6790     0.2240 ca         1 53U      -0.116300
     22 C11         -6.1190    -0.3080     0.1970 ca         1 53U      -0.112000
     23 C12         -7.2280    -0.1770    -0.6260 ca         1 53U      -0.132500
     24 C13         -7.3670     0.9430    -1.4360 ca         1 53U      -0.119000
     25 C14         -6.3910     1.9310    -1.4180 ca         1 53U      -0.132500
     26 C15         -5.2820     1.7970    -0.5920 ca         1 53U      -0.112000
     27 HN1          2.2010     2.4860     0.2890 hn         1 53U       0.354800
     28 HN1A         2.2400     1.9520     1.8170 hn         1 53U       0.354800
     29 H2           2.8390    -0.2000     1.1910 h1         1 53U       0.073700
     30 H1           2.9350    -0.7440    -1.2780 hc         1 53U       0.052200
     31 H1A          2.8160     0.9670    -1.6230 hc         1 53U       0.052200
     32 H17          4.9220    -1.6520    -0.0540 ha         1 53U       0.125500
     33 H21          4.7700     2.4100    -1.3840 ha         1 53U       0.125500
     34 H18          7.3580    -1.4700     0.2350 ha         1 53U       0.128000
     35 H20          7.2070     2.5940    -1.1050 ha         1 53U       0.128000
     36 H19          8.5180     0.6570    -0.2910 ha         1 53U       0.129000
     37 H7          -1.0820    -1.3080    -0.9590 h1         1 53U       0.064700
     38 H6          -1.6310    -3.4770    -0.1560 hc         1 53U       0.064200
     39 H6A         -1.1890    -3.0750     1.5030 hc         1 53U       0.064200
     40 H5           0.7240    -3.6060    -0.8100 hc         1 53U       0.056700
     41 H5A          0.7520    -4.3490     0.7910 hc         1 53U       0.056700
     42 H4           2.3480    -2.2330     0.2840 h1         1 53U       0.053700
     43 H4A          1.4860    -2.2850     1.8270 h1         1 53U       0.053700
     44 HN3         -3.0110    -0.3720    -0.6030 hn         1 53U       0.319500
     45 H9          -4.1810     0.0120     2.0210 h1         1 53U       0.058700
     46 H9A         -3.5220     1.5030     1.3650 h1         1 53U       0.058700
     47 H11         -6.0190    -1.1820     0.8300 ha         1 53U       0.135000
     48 H12         -7.9870    -0.9490    -0.6340 ha         1 53U       0.132500
     49 H13         -8.2330     1.0470    -2.0760 ha         1 53U       0.132000
     50 H14         -6.4940     2.8080    -2.0430 ha         1 53U       0.132500
     51 H15         -4.5250     2.5720    -0.5810 ha         1 53U       0.135000
@<TRIPOS>BOND
     1     1     2 1   
     2     1    27 1   
     3     1    28 1   
     4     2     3 1   
     5     2     5 1   
     6     2    29 1   
     7     3     4 2   
     8     3    12 1   
     9     5     6 1   
    10     5    30 1   
    11     5    31 1   
    12     6     7 ar  
    13     6     8 ar  
    14     7     9 ar  
    15     7    32 1   
    16     8    10 ar  
    17     8    33 1   
    18     9    11 ar  
    19     9    34 1   
    20    10    11 ar  
    21    10    35 1   
    22    11    36 1   
    23    12    13 1   
    24    12    18 1   
    25    13    14 1   
    26    13    16 1   
    27    13    37 1   
    28    14    15 2   
    29    14    19 1   
    30    16    17 1   
    31    16    38 1   
    32    16    39 1   
    33    17    18 1   
    34    17    40 1   
    35    17    41 1   
    36    18    42 1   
    37    18    43 1   
    38    19    20 1   
    39    19    44 1   
    40    20    21 1   
    41    20    45 1   
    42    20    46 1   
    43    21    22 ar  
    44    21    26 ar  
    45    22    23 ar  
    46    22    47 1   
    47    23    24 ar  
    48    23    48 1   
    49    24    25 ar  
    50    24    49 1   
    51    25    26 ar  
    52    25    50 1   
    53    26    51 1   
@<TRIPOS>SUBSTRUCTURE
     1 53U         1 TEMP              0 ****  ****    0 ROOT
