@<TRIPOS>MOLECULE
53V
   55    57     1     0     0
SMALL
abcg2


@<TRIPOS>ATOM
      1 C1           5.2220    -0.5200    -1.0460 ca         1 53V       0.447900
      2 C2          -2.1090     3.4300     2.2520 c3         1 53V       0.148900
      3 C3           6.5260    -0.0440     0.7480 ca         1 53V       0.428900
      4 C6           4.0690    -0.1690    -0.2970 ca         1 53V      -0.226000
      5 C12          0.3420    -0.2990    -1.9620 c3         1 53V       0.079700
      6 C13          0.2990     0.5240    -3.2570 c3         1 53V      -0.082100
      7 C14         -0.7020     0.1940    -0.9790 ca         1 53V      -0.043300
      8 C15         -0.4830     1.3370    -0.2270 ca         1 53V      -0.134000
      9 C16         -1.4680     1.8110     0.6380 ca         1 53V       0.137100
     10 C17         -2.6810     1.1350     0.7440 ca         1 53V      -0.188000
     11 C18         -2.9020    -0.0130    -0.0120 cp         1 53V       0.004000
     12 C20         -5.2820    -0.3450    -0.6820 ca         1 53V      -0.055300
     13 C21         -6.4880    -1.0300    -0.5540 ca         1 53V      -0.118000
     14 C22         -6.6160    -2.0790     0.3440 ca         1 53V      -0.102000
     15 C23         -5.5330    -2.4570     1.1230 ca         1 53V      -0.118000
     16 C24         -4.3130    -1.7950     1.0160 ca         1 53V      -0.055300
     17 C27         -3.1430    -2.2260     1.8530 c3         1 53V      -0.048300
     18 C25         -4.1960    -0.7350     0.1100 cp         1 53V      -0.049000
     19 C19         -1.9140    -0.4820    -0.8680 ca         1 53V      -0.135000
     20 O17         -1.1630     2.9260     1.3310 os         1 53V      -0.343100
     21 C11          1.6780    -0.2790    -1.3710 c1         1 53V      -0.161100
     22 C10          2.7760    -0.2310    -0.8700 cg         1 53V      -0.081000
     23 C5           4.2920     0.2480     1.0150 ca         1 53V       0.225300
     24 C8           3.1440     0.6230     1.8960 c3         1 53V      -0.155400
     25 N4           5.5080     0.3140     1.5400 nb         1 53V      -0.294000
     26 N7           7.7560    -0.0100     1.2940 nv         1 53V      -1.063900
     27 N2           6.4380    -0.4540    -0.5150 nb         1 53V      -0.344000
     28 N9           5.1210    -0.9160    -2.3200 nv         1 53V      -1.077900
     29 H2          -1.6640     4.3160     2.6980 h1         1 53V       0.040367
     30 H2A         -3.0450     3.7150     1.7650 h1         1 53V       0.040367
     31 H2B         -2.3300     2.7110     3.0450 h1         1 53V       0.040367
     32 H12          0.0960    -1.3350    -2.2170 hc         1 53V       0.064700
     33 H13          1.0090     0.1350    -3.9870 hc         1 53V       0.040700
     34 H13A        -0.6980     0.4810    -3.6940 hc         1 53V       0.040700
     35 H13B         0.5450     1.5690    -3.0630 hc         1 53V       0.040700
     36 H15          0.4580     1.8700    -0.2980 ha         1 53V       0.133000
     37 H17         -3.4620     1.4790     1.4090 ha         1 53V       0.122000
     38 H26         -4.9530     1.7350    -1.1550 hc         1 53V       0.044200
     39 H26A        -4.3430     0.6260    -2.3650 hc         1 53V       0.044200
     40 H26B        -6.0770     0.9110    -2.2320 hc         1 53V       0.044200
     41 H21         -7.3340    -0.7380    -1.1650 ha         1 53V       0.111500
     42 H22         -7.5590    -2.6020     0.4360 ha         1 53V       0.112000
     43 H23         -5.6330    -3.2770     1.8240 ha         1 53V       0.111500
     44 H27         -2.3760    -2.7080     1.2430 hc         1 53V       0.044200
     45 H27A        -2.6640    -1.3810     2.3480 hc         1 53V       0.044200
     46 H27B        -3.4480    -2.9370     2.6200 hc         1 53V       0.044200
     47 H19         -2.0880    -1.3780    -1.4520 ha         1 53V       0.118000
     48 H8           2.5970    -0.2710     2.2040 hc         1 53V       0.058700
     49 H8A          3.4960     1.1320     2.7900 hc         1 53V       0.058700
     50 H8B          2.4320     1.2650     1.3770 hc         1 53V       0.058700
     51 HN7          7.8850     0.4560     2.1750 hn         1 53V       0.496000
     52 HN7A         8.5600    -0.1100     0.7000 hn         1 53V       0.496000
     53 HN9          4.2260    -1.0570    -2.7540 hn         1 53V       0.500500
     54 HN9A         5.9430    -1.2050    -2.8210 hn         1 53V       0.500500
     55 C26         -5.1590     0.7890    -1.6590 c3         1 53V      -0.048300
@<TRIPOS>BOND
     1     1     4 ar  
     2     1    27 ar  
     3     1    28 1   
     4     2    20 1   
     5     2    29 1   
     6     2    30 1   
     7     2    31 1   
     8     3    25 ar  
     9     3    26 1   
    10     3    27 ar  
    11     4    22 1   
    12     4    23 ar  
    13     5     6 1   
    14     5     7 1   
    15     5    21 1   
    16     5    32 1   
    17     6    33 1   
    18     6    34 1   
    19     6    35 1   
    20     7     8 ar  
    21     7    19 ar  
    22     8     9 ar  
    23     8    36 1   
    24     9    10 ar  
    25     9    20 1   
    26    10    11 ar  
    27    10    37 1   
    28    11    18 1   
    29    11    19 ar  
    30    12    13 ar  
    31    12    18 ar  
    32    12    55 1   
    33    13    14 ar  
    34    13    41 1   
    35    14    15 ar  
    36    14    42 1   
    37    15    16 ar  
    38    15    43 1   
    39    16    17 1   
    40    16    18 ar  
    41    17    44 1   
    42    17    45 1   
    43    17    46 1   
    44    19    47 1   
    45    21    22 3   
    46    23    24 1   
    47    23    25 ar  
    48    24    48 1   
    49    24    49 1   
    50    24    50 1   
    51    26    51 1   
    52    26    52 1   
    53    28    53 1   
    54    28    54 1   
    55    38    55 1   
    56    39    55 1   
    57    40    55 1   
@<TRIPOS>SUBSTRUCTURE
     1 53V         1 TEMP              0 ****  ****    0 ROOT
