@<TRIPOS>MOLECULE
53V
   55    57     1     0     0
SMALL
No Charge or Current Charge


@<TRIPOS>ATOM
      1 C1           4.9800    -0.4470    -0.6980 ca         1 53V       0.447900
      2 C2          -2.7690     4.4980     1.0300 c3         1 53V       0.148900
      3 C3           5.7240    -1.1930     1.3000 ca         1 53V       0.428900
      4 C6           3.6470    -0.5650    -0.2590 ca         1 53V      -0.226000
      5 C12          0.3540     0.3790    -2.5510 c3         1 53V       0.079700
      6 C13          0.6640     1.3660    -3.7020 c3         1 53V      -0.082100
      7 C14         -0.7310     0.8690    -1.5850 ca         1 53V      -0.043300
      8 C15         -0.8020     2.2150    -1.1640 ca         1 53V      -0.134000
      9 C16         -1.7870     2.6340    -0.2570 ca         1 53V       0.137100
     10 C17         -2.7120     1.6990     0.2500 ca         1 53V      -0.188000
     11 C18         -2.6580     0.3440    -0.1460 cp         1 53V       0.004000
     12 C20         -5.0040    -0.5910     0.0670 ca         1 53V      -0.055300
     13 C21         -5.9020    -1.5350     0.5990 ca         1 53V      -0.118000
     14 C22         -5.4480    -2.5440     1.4600 ca         1 53V      -0.102000
     15 C23         -4.0900    -2.6170     1.7990 ca         1 53V      -0.118000
     16 C24         -3.1730    -1.6810     1.2850 ca         1 53V      -0.055300
     17 C27         -1.7080    -1.7930     1.7000 c3         1 53V      -0.048300
     18 C25         -3.6230    -0.6530     0.4070 cp         1 53V      -0.049000
     19 C19         -1.6620    -0.0520    -1.0660 ca         1 53V      -0.135000
     20 O17         -1.8000     3.9650     0.1100 os         1 53V      -0.343100
     21 C11          1.5630     0.0490    -1.7850 c1         1 53V      -0.161100
     22 C10          2.5260    -0.2300    -1.1000 cg         1 53V      -0.081000
     23 C5           3.4600    -1.0330     1.0620 ca         1 53V       0.225300
     24 C8           2.0800    -1.2160     1.6840 c3         1 53V      -0.155400
     25 N4           4.5120    -1.3480     1.8440 nb         1 53V      -0.294000
     26 N7           6.7750    -1.5080     2.0860 nv         1 53V      -1.063900
     27 N2           6.0240    -0.7610     0.0740 nb         1 53V      -0.344000
     28 N9           5.3140    -0.0130    -1.9400 nv         1 53V      -1.077900
     29 H2          -2.6020     5.5720     1.1790 h1         1 53V       0.040367
     30 H2A         -3.7880     4.3620     0.6460 h1         1 53V       0.040367
     31 H2B         -2.6920     4.0040     2.0070 h1         1 53V       0.040367
     32 H12          0.0090    -0.5500    -3.0230 hc         1 53V       0.064700
     33 H13          1.3410     0.9040    -4.4300 hc         1 53V       0.040700
     34 H13A        -0.2580     1.6430    -4.2270 hc         1 53V       0.040700
     35 H13B         1.1420     2.2810    -3.3340 hc         1 53V       0.040700
     36 H15         -0.0860     2.9450    -1.5280 ha         1 53V       0.133000
     37 H17         -3.4760     1.9960     0.9620 ha         1 53V       0.122000
     38 H26         -5.6160     1.4470    -0.3800 hc         1 53V       0.044200
     39 H26A        -4.8980     0.5950    -1.7580 hc         1 53V       0.044200
     40 H26B        -6.5450     0.2210    -1.2520 hc         1 53V       0.044200
     41 H21         -6.9590    -1.4910     0.3420 ha         1 53V       0.111500
     42 H22         -6.1500    -3.2710     1.8640 ha         1 53V       0.112000
     43 H23         -3.7510    -3.4040     2.4690 ha         1 53V       0.111500
     44 H27         -1.1030    -2.2180     0.8910 hc         1 53V       0.044200
     45 H27A        -1.2890    -0.8120     1.9550 hc         1 53V       0.044200
     46 H27B        -1.5820    -2.4360     2.5790 hc         1 53V       0.044200
     47 H19         -1.6140    -1.0940    -1.3710 ha         1 53V       0.118000
     48 H8           1.5000    -1.9620     1.1290 hc         1 53V       0.058700
     49 H8A          2.1410    -1.5520     2.7260 hc         1 53V       0.058700
     50 H8B          1.5170    -0.2750     1.6730 hc         1 53V       0.058700
     51 HN7          6.6110    -1.6100     3.0840 hn         1 53V       0.496000
     52 HN7A         7.6980    -1.1880     1.8050 hn         1 53V       0.496000
     53 HN9          4.5770     0.0220    -2.6400 hn         1 53V       0.500500
     54 HN9A         6.2560    -0.1940    -2.2760 hn         1 53V       0.500500
     55 C26         -5.5450     0.4750    -0.8820 c3         1 53V      -0.048300
@<TRIPOS>BOND
     1     1     4 ar  
     2     1    27 ar  
     3     1    28 1   
     4     2    20 1   
     5     2    29 1   
     6     2    30 1   
     7     2    31 1   
     8     3    25 ar  
     9     3    26 1   
    10     3    27 ar  
    11     4    22 1   
    12     4    23 ar  
    13     5     6 1   
    14     5     7 1   
    15     5    21 1   
    16     5    32 1   
    17     6    33 1   
    18     6    34 1   
    19     6    35 1   
    20     7     8 ar  
    21     7    19 ar  
    22     8     9 ar  
    23     8    36 1   
    24     9    10 ar  
    25     9    20 1   
    26    10    11 ar  
    27    10    37 1   
    28    11    18 1   
    29    11    19 ar  
    30    12    13 ar  
    31    12    18 ar  
    32    12    55 1   
    33    13    14 ar  
    34    13    41 1   
    35    14    15 ar  
    36    14    42 1   
    37    15    16 ar  
    38    15    43 1   
    39    16    17 1   
    40    16    18 ar  
    41    17    44 1   
    42    17    45 1   
    43    17    46 1   
    44    19    47 1   
    45    21    22 3   
    46    23    24 1   
    47    23    25 ar  
    48    24    48 1   
    49    24    49 1   
    50    24    50 1   
    51    26    51 1   
    52    26    52 1   
    53    28    53 1   
    54    28    54 1   
    55    38    55 1   
    56    39    55 1   
    57    40    55 1   
@<TRIPOS>SUBSTRUCTURE
     1 53V         1 TEMP              0 ****  ****    0 ROOT
