@<TRIPOS>MOLECULE
53W
   66    70     1     0     0
SMALL
No Charge or Current Charge


@<TRIPOS>ATOM
      1 C1           6.9330     0.3160    -0.7430 cc         1 53W       0.290300
      2 C2           5.8940    -0.4980    -0.2220 cc         1 53W      -0.175000
      3 C4           6.1020    -2.7800     1.0740 c3         1 53W      -0.139400
      4 C8           1.7640     0.2920     0.5340 ca         1 53W      -0.080200
      5 C9           2.1670    -0.9880     0.2910 ca         1 53W       0.070400
      6 C13         -0.6670     2.2800    -0.2860 c3         1 53W       0.146800
      7 C10          3.5150    -1.2800     0.0420 ca         1 53W      -0.042000
      8 C11          0.0320    -1.1000     0.6020 cc         1 53W       0.423800
      9 C14         -2.9570     3.1100     0.2970 c6         1 53W       0.126300
     10 C16         -2.4620     5.6120    -1.0630 c6         1 53W       0.152600
     11 C21         -4.6510    -0.9680     0.2640 ca         1 53W      -0.069500
     12 C22         -5.9700    -1.4040     0.4740 ca         1 53W      -0.169500
     13 C23         -6.3420    -2.7220     0.1630 ca         1 53W       0.143100
     14 C24         -5.3780    -3.6100    -0.3620 ca         1 53W      -0.169500
     15 C25         -4.0580    -3.1730    -0.5720 ca         1 53W      -0.069500
     16 C26         -8.1330    -4.4190     0.1070 c3         1 53W       0.147900
     17 O2          -7.6520    -3.0930     0.3900 os         1 53W      -0.342100
     18 C20         -3.6890    -1.8500    -0.2610 ca         1 53W      -0.124300
     19 C19         -2.2590    -1.3790    -0.4830 c3         1 53W      -0.022100
     20 C18         -1.3750    -1.6140     0.7600 c3         1 53W      -0.094700
     21 N2           0.4160     0.2410     0.7300 na         1 53W      -0.179600
     22 N3          -1.5500     3.4600    -0.0910 n3         1 53W      -0.721600
     23 C17         -1.5510     4.3680    -1.2810 c6         1 53W       0.126300
     24 O1          -3.8040     5.1950    -0.7170 os         1 53W      -0.446000
     25 C15         -3.8420     4.3790     0.4770 c6         1 53W       0.152600
     26 C7           2.6560     1.3700     0.5500 ca         1 53W      -0.115000
     27 C6           4.0170     1.0970     0.2990 ca         1 53W      -0.084000
     28 N1           1.0970    -1.8800     0.3270 nd         1 53W      -0.575100
     29 C5           4.4680    -0.2270     0.0460 ca         1 53W      -0.026000
     30 C3           6.5500    -1.6030     0.2470 cd         1 53W       0.199300
     31 O            7.8870    -1.5030    -0.0380 os         1 53W      -0.074700
     32 N            8.1290    -0.2440    -0.6810 nd         1 53W      -0.368300
     33 C            6.7260     1.6630    -1.3780 c3         1 53W      -0.133400
     34 H4           5.6850    -3.5710     0.4410 hc         1 53W       0.064367
     35 H5           6.9440    -3.2120     1.6280 hc         1 53W       0.064367
     36 H3           5.3440    -2.4870     1.8090 hc         1 53W       0.064367
     37 H9           0.0760     2.0560     1.7410 h1         1 53W       0.067200
     38 H10         -1.3740     1.1050     1.4040 h1         1 53W       0.067200
     39 H11          0.3110     2.6170    -0.6550 h1         1 53W       0.045700
     40 H12         -1.0870     1.6310    -1.0650 h1         1 53W       0.045700
     41 H8           3.8000    -2.3010    -0.1860 ha         1 53W       0.130000
     42 H14         -3.4150     2.4670    -0.4690 h1         1 53W       0.042200
     43 H13         -2.9750     2.5480     1.2420 h1         1 53W       0.042200
     44 H17         -2.0560     6.2380    -0.2560 h1         1 53W       0.052950
     45 H18         -2.4970     6.2160    -1.9810 h1         1 53W       0.052950
     46 H25         -4.3780     0.0560     0.5120 ha         1 53W       0.111000
     47 H26         -6.7090    -0.7180     0.8800 ha         1 53W       0.123000
     48 H27         -5.6320    -4.6360    -0.6120 ha         1 53W       0.123000
     49 H28         -3.3210    -3.8640    -0.9750 ha         1 53W       0.111000
     50 H30         -9.1980    -4.4990     0.3600 h1         1 53W       0.041367
     51 H29         -8.0190    -4.6560    -0.9590 h1         1 53W       0.041367
     52 H31         -7.5870    -5.1670     0.6950 h1         1 53W       0.041367
     53 H23         -1.8150    -1.8980    -1.3420 hc         1 53W       0.053200
     54 H24         -2.2560    -0.3130    -0.7370 hc         1 53W       0.053200
     55 H22         -1.3460    -2.6890     0.9760 hc         1 53W       0.066700
     56 H21         -1.8410    -1.1440     1.6330 hc         1 53W       0.066700
     57 H20         -1.9030     3.8270    -2.1730 h1         1 53W       0.042200
     58 H19         -0.5300     4.7140    -1.4970 h1         1 53W       0.042200
     59 H15         -4.8820     4.0850     0.6800 h1         1 53W       0.052950
     60 H16         -3.4810     4.9700     1.3320 h1         1 53W       0.052950
     61 H7           2.3220     2.3840     0.7540 ha         1 53W       0.120000
     62 H6           4.7200     1.9220     0.3400 ha         1 53W       0.115000
     63 H            6.7850     2.4610    -0.6290 hc         1 53W       0.056033
     64 H1           7.4930     1.8600    -2.1350 hc         1 53W       0.056033
     65 H2           5.7520     1.7210    -1.8770 hc         1 53W       0.056033
     66 C12         -0.4170     1.4330     0.9850 c3         1 53W       0.077600
@<TRIPOS>BOND
     1     1     2 1   
     2     1    32 2   
     3     1    33 1   
     4     2    29 1   
     5     2    30 2   
     6     3    30 1   
     7     3    34 1   
     8     3    35 1   
     9     3    36 1   
    10     4     5 ar  
    11     4    21 1   
    12     4    26 ar  
    13     5     7 ar  
    14     5    28 1   
    15     6    22 1   
    16     6    39 1   
    17     6    40 1   
    18     6    66 1   
    19     7    29 ar  
    20     7    41 1   
    21     8    20 1   
    22     8    21 1   
    23     8    28 2   
    24     9    22 1   
    25     9    25 1   
    26     9    42 1   
    27     9    43 1   
    28    10    23 1   
    29    10    24 1   
    30    10    44 1   
    31    10    45 1   
    32    11    12 ar  
    33    11    18 ar  
    34    11    46 1   
    35    12    13 ar  
    36    12    47 1   
    37    13    14 ar  
    38    13    17 1   
    39    14    15 ar  
    40    14    48 1   
    41    15    18 ar  
    42    15    49 1   
    43    16    17 1   
    44    16    50 1   
    45    16    51 1   
    46    16    52 1   
    47    18    19 1   
    48    19    20 1   
    49    19    53 1   
    50    19    54 1   
    51    20    55 1   
    52    20    56 1   
    53    21    66 1   
    54    22    23 1   
    55    23    57 1   
    56    23    58 1   
    57    24    25 1   
    58    25    59 1   
    59    25    60 1   
    60    26    27 ar  
    61    26    61 1   
    62    27    29 ar  
    63    27    62 1   
    64    30    31 1   
    65    31    32 1   
    66    33    63 1   
    67    33    64 1   
    68    33    65 1   
    69    37    66 1   
    70    38    66 1   
@<TRIPOS>SUBSTRUCTURE
     1 53W         1 TEMP              0 ****  ****    0 ROOT
