@<TRIPOS>MOLECULE
53W
   66    70     1     0     0
SMALL
abcg2


@<TRIPOS>ATOM
      1 C1           6.6850     0.0550    -1.0710 cc         1 53W       0.290300
      2 C2           5.7990    -0.5680    -0.1410 cc         1 53W      -0.175000
      3 C4           6.3110    -2.5320     1.4910 c3         1 53W      -0.139400
      4 C8           1.7440     0.3700     0.5880 ca         1 53W      -0.080200
      5 C9           2.1120    -0.9630     0.3600 ca         1 53W       0.070400
      6 C13         -0.7540     2.2740    -0.2210 c3         1 53W       0.146800
      7 C10          3.4430    -1.2860     0.1100 ca         1 53W      -0.042000
      8 C11          0.0040    -0.9690     0.6890 cc         1 53W       0.423800
      9 C14         -3.0130     2.9860     0.2380 c6         1 53W       0.126300
     10 C16         -2.4430     5.5850    -0.6190 c6         1 53W       0.152600
     11 C21         -4.6170    -0.8790    -0.1470 ca         1 53W      -0.069500
     12 C22         -5.9260    -1.2960     0.0080 ca         1 53W      -0.169500
     13 C23         -6.2470    -2.6510    -0.0830 ca         1 53W       0.143100
     14 C24         -5.2330    -3.5730    -0.3270 ca         1 53W      -0.169500
     15 C25         -3.9230    -3.1320    -0.4820 ca         1 53W      -0.069500
     16 C26         -7.9220    -4.3310    -0.0090 c3         1 53W       0.147900
     17 O2          -7.5480    -2.9710     0.0740 os         1 53W      -0.342100
     18 C20         -3.5890    -1.7870    -0.3990 ca         1 53W      -0.124300
     19 C19         -2.1640    -1.3300    -0.5330 c3         1 53W      -0.022100
     20 C18         -1.4100    -1.4180     0.8060 c3         1 53W      -0.094700
     21 N2           0.3890     0.3390     0.8000 na         1 53W      -0.179600
     22 N3          -1.6300     3.3920     0.0530 n3         1 53W      -0.721600
     23 C17         -1.5540     4.4110    -0.9800 c6         1 53W       0.126300
     24 O1          -3.7820     5.1830    -0.4320 os         1 53W      -0.446000
     25 C15         -3.8730     4.1920     0.5660 c6         1 53W       0.152600
     26 C7           2.6690     1.4070     0.5840 ca         1 53W      -0.115000
     27 C6           3.9870     1.0660     0.3440 ca         1 53W      -0.084000
     28 N1           1.0040    -1.7700     0.4290 nd         1 53W      -0.575100
     29 C5           4.3860    -0.2650     0.1060 ca         1 53W      -0.026000
     30 C3           6.5730    -1.5250     0.4390 cd         1 53W       0.199300
     31 O            7.7970    -1.4820    -0.0920 os         1 53W      -0.074700
     32 N            7.8610    -0.4980    -1.0370 nd         1 53W      -0.368300
     33 C            6.3900     1.1750    -2.0030 c3         1 53W      -0.133400
     34 H4           6.2230    -3.5340     1.0680 hc         1 53W       0.064367
     35 H5           7.1140    -2.5510     2.2280 hc         1 53W       0.064367
     36 H3           5.3790    -2.3040     2.0030 hc         1 53W       0.064367
     37 H9           0.0810     2.1500     1.7610 h1         1 53W       0.067200
     38 H10         -1.3450     1.1640     1.5550 h1         1 53W       0.067200
     39 H11          0.1800     2.6600    -0.6360 h1         1 53W       0.045700
     40 H12         -1.1760     1.5960    -0.9800 h1         1 53W       0.045700
     41 H8           3.7300    -2.3090    -0.0960 ha         1 53W       0.130000
     42 H14         -3.4090     2.4860    -0.6640 h1         1 53W       0.042200
     43 H13         -3.0960     2.2760     1.0650 h1         1 53W       0.042200
     44 H17         -2.0560     6.0670     0.2900 h1         1 53W       0.052950
     45 H18         -2.4310     6.3230    -1.4220 h1         1 53W       0.052950
     46 H25         -4.3950     0.1800    -0.0780 ha         1 53W       0.111000
     47 H26         -6.7110    -0.5730     0.1950 ha         1 53W       0.123000
     48 H27         -5.4360    -4.6330    -0.4060 ha         1 53W       0.123000
     49 H28         -3.1490    -3.8650    -0.6750 ha         1 53W       0.111000
     50 H30         -9.0000    -4.3640     0.1260 h1         1 53W       0.041367
     51 H29         -7.6760    -4.7650    -0.9820 h1         1 53W       0.041367
     52 H31         -7.4520    -4.9330     0.7740 h1         1 53W       0.041367
     53 H23         -1.6390    -1.9390    -1.2710 hc         1 53W       0.053200
     54 H24         -2.1410    -0.3040    -0.9060 hc         1 53W       0.053200
     55 H22         -1.4030    -2.4540     1.1440 hc         1 53W       0.066700
     56 H21         -1.9400    -0.8420     1.5680 hc         1 53W       0.066700
     57 H20         -1.8480     4.0180    -1.9680 h1         1 53W       0.042200
     58 H19         -0.5230     4.7630    -1.0660 h1         1 53W       0.042200
     59 H15         -4.9200     3.8930     0.6370 h1         1 53W       0.052950
     60 H16         -3.5700     4.5980     1.5420 h1         1 53W       0.052950
     61 H7           2.3870     2.4360     0.7650 ha         1 53W       0.120000
     62 H6           4.7360     1.8470     0.3530 ha         1 53W       0.115000
     63 H            6.3000     2.1180    -1.4640 hc         1 53W       0.056033
     64 H1           7.1790     1.2840    -2.7450 hc         1 53W       0.056033
     65 H2           5.4450     1.0070    -2.5200 hc         1 53W       0.056033
     66 C12         -0.4380     1.4990     1.0560 c3         1 53W       0.077600
@<TRIPOS>BOND
     1     1     2 1   
     2     1    32 2   
     3     1    33 1   
     4     2    29 1   
     5     2    30 2   
     6     3    30 1   
     7     3    34 1   
     8     3    35 1   
     9     3    36 1   
    10     4     5 ar  
    11     4    21 1   
    12     4    26 ar  
    13     5     7 ar  
    14     5    28 1   
    15     6    22 1   
    16     6    39 1   
    17     6    40 1   
    18     6    66 1   
    19     7    29 ar  
    20     7    41 1   
    21     8    20 1   
    22     8    21 1   
    23     8    28 2   
    24     9    22 1   
    25     9    25 1   
    26     9    42 1   
    27     9    43 1   
    28    10    23 1   
    29    10    24 1   
    30    10    44 1   
    31    10    45 1   
    32    11    12 ar  
    33    11    18 ar  
    34    11    46 1   
    35    12    13 ar  
    36    12    47 1   
    37    13    14 ar  
    38    13    17 1   
    39    14    15 ar  
    40    14    48 1   
    41    15    18 ar  
    42    15    49 1   
    43    16    17 1   
    44    16    50 1   
    45    16    51 1   
    46    16    52 1   
    47    18    19 1   
    48    19    20 1   
    49    19    53 1   
    50    19    54 1   
    51    20    55 1   
    52    20    56 1   
    53    21    66 1   
    54    22    23 1   
    55    23    57 1   
    56    23    58 1   
    57    24    25 1   
    58    25    59 1   
    59    25    60 1   
    60    26    27 ar  
    61    26    61 1   
    62    27    29 ar  
    63    27    62 1   
    64    30    31 1   
    65    31    32 1   
    66    33    63 1   
    67    33    64 1   
    68    33    65 1   
    69    37    66 1   
    70    38    66 1   
@<TRIPOS>SUBSTRUCTURE
     1 53W         1 TEMP              0 ****  ****    0 ROOT
