@<TRIPOS>MOLECULE
53X
   34    36     1     0     0
SMALL
No Charge or Current Charge


@<TRIPOS>ATOM
      1 OAS         -5.5960     1.6260    15.4280 o          1 53X      -0.713500
      2 CAO         -4.5680     1.8610    14.8110 c          1 53X       0.727600
      3 OAT         -3.9150     0.9820    14.2660 o          1 53X      -0.713500
      4 CAL         -4.0900     3.2670    14.7190 cc         1 53X      -0.161600
      5 CAK         -2.9590     3.6870    14.0650 cd         1 53X      -0.232000
      6 NAM         -4.6200     4.4530    15.2330 na         1 53X       0.138800
      7 CAP         -5.8490     4.5950    16.0340 c3         1 53X       0.095900
      8 NAN         -3.8700     5.5760    14.9260 nc         1 53X      -0.585800
      9 CAJ         -2.8700     5.0870    14.2190 cd         1 53X       0.301800
     10 CAI         -1.8090     5.9010    13.6670 cd         1 53X      -0.131000
     11 CAH         -0.7840     5.3130    12.9290 cc         1 53X      -0.164100
     12 CAF         -1.6090     7.3340    13.7560 ca         1 53X      -0.073800
     13 CAA         -2.3430     8.3580    14.3750 ca         1 53X      -0.035000
     14 CAB         -1.8550     9.6780    14.2630 ca         1 53X      -0.166000
     15 CAC         -0.6630     9.9430    13.5480 ca         1 53X      -0.105000
     16 CAD          0.0520     8.8920    12.9360 ca         1 53X      -0.145000
     17 CAE         -0.4550     7.5870    13.0610 ca         1 53X      -0.053200
     18 NAG          0.0500     6.3920    12.5620 na         1 53X      -0.108700
     19 CAQ          1.2950     6.3560    11.7660 c3         1 53X       0.088600
     20 CAR          1.7210     4.9540    11.2850 c3         1 53X      -0.106100
     21 HAK1        -2.2670     3.0490    13.5300 ha         1 53X       0.138000
     22 HAP3        -6.0110     5.6480    16.2950 h1         1 53X       0.047367
     23 HAP2        -6.7060     4.2330    15.4550 h1         1 53X       0.047367
     24 HAP1        -5.7550     4.0080    16.9550 h1         1 53X       0.047367
     25 HAH1        -0.5890     4.2840    12.6510 h4         1 53X       0.216000
     26 HAA1        -3.2580     8.1500    14.9240 ha         1 53X       0.138000
     27 HAB1        -2.3980    10.4950    14.7310 ha         1 53X       0.098000
     28 HAC1        -0.2960    10.9640    13.4680 ha         1 53X       0.093000
     29 HAD1         0.9670     9.0940    12.3860 ha         1 53X       0.098000
     30 HAQ1         2.1040     6.7800    12.3750 h1         1 53X       0.041200
     31 HAQ2         1.1620     7.0030    10.8900 h1         1 53X       0.041200
     32 HAR1         2.6490     5.0190    10.7060 hc         1 53X       0.045367
     33 HAR3         1.8970     4.2870    12.1380 hc         1 53X       0.045367
     34 HAR2         0.9490     4.5120    10.6450 hc         1 53X       0.045367
@<TRIPOS>BOND
     1     1     2 1   
     2     2     3 1   
     3     2     4 1   
     4     4     5 2   
     5     4     6 1   
     6     5     9 1   
     7     5    21 1   
     8     6     7 1   
     9     6     8 1   
    10     7    22 1   
    11     7    23 1   
    12     7    24 1   
    13     8     9 2   
    14     9    10 1   
    15    10    11 2   
    16    10    12 1   
    17    11    18 1   
    18    11    25 1   
    19    12    13 ar  
    20    12    17 ar  
    21    13    14 ar  
    22    13    26 1   
    23    14    15 ar  
    24    14    27 1   
    25    15    16 ar  
    26    15    28 1   
    27    16    17 ar  
    28    16    29 1   
    29    17    18 1   
    30    18    19 1   
    31    19    20 1   
    32    19    30 1   
    33    19    31 1   
    34    20    32 1   
    35    20    33 1   
    36    20    34 1   
@<TRIPOS>SUBSTRUCTURE
     1 53X         1 TEMP              0 ****  ****    0 ROOT
