@<TRIPOS>MOLECULE
53X
   34    36     1     0     0
SMALL
abcg2


@<TRIPOS>ATOM
      1 OAS         -5.8410     1.8240    15.5120 o          1 53X      -0.713500
      2 CAO         -4.7020     1.8740    14.9870 c          1 53X       0.727600
      3 OAT         -4.0090     0.9020    14.5960 o          1 53X      -0.713500
      4 CAL         -4.0800     3.2350    14.7850 cc         1 53X      -0.161600
      5 CAK         -2.9040     3.5550    14.1270 cd         1 53X      -0.232000
      6 NAM         -4.6000     4.4160    15.2240 na         1 53X       0.138800
      7 CAP         -5.8190     4.6730    15.9700 c3         1 53X       0.095900
      8 NAN         -3.8250     5.4680    14.8840 nc         1 53X      -0.585800
      9 CAJ         -2.7830     4.9580    14.2090 cd         1 53X       0.301800
     10 CAI         -1.7310     5.8060    13.6750 cd         1 53X      -0.131000
     11 CAH         -0.6310     5.3650    12.9700 cc         1 53X      -0.164100
     12 CAF         -1.6120     7.2410    13.7480 ca         1 53X      -0.073800
     13 CAA         -2.3850     8.2650    14.3150 ca         1 53X      -0.035000
     14 CAB         -1.9540     9.5780    14.1970 ca         1 53X      -0.166000
     15 CAC         -0.7620     9.8960    13.5240 ca         1 53X      -0.105000
     16 CAD          0.0230     8.9060    12.9500 ca         1 53X      -0.145000
     17 CAE         -0.4140     7.5860    13.0640 ca         1 53X      -0.053200
     18 NAG          0.1580     6.4240    12.5900 na         1 53X      -0.108700
     19 CAQ          1.4400     6.3630    11.8940 c3         1 53X       0.088600
     20 CAR          1.6330     5.0870    11.0920 c3         1 53X      -0.106100
     21 HAK1        -2.2340     2.8560    13.6570 ha         1 53X       0.138000
     22 HAP3        -5.8140     5.7280    16.2290 h1         1 53X       0.047367
     23 HAP2        -6.6970     4.4430    15.3690 h1         1 53X       0.047367
     24 HAP1        -5.8480     4.0660    16.8720 h1         1 53X       0.047367
     25 HAH1        -0.3630     4.3570    12.7050 h4         1 53X       0.216000
     26 HAA1        -3.3010     8.0260    14.8350 ha         1 53X       0.138000
     27 HAB1        -2.5440    10.3740    14.6340 ha         1 53X       0.098000
     28 HAC1        -0.4500    10.9300    13.4510 ha         1 53X       0.093000
     29 HAD1         0.9420     9.1560    12.4370 ha         1 53X       0.098000
     30 HAQ1         2.2480     6.4750    12.6240 h1         1 53X       0.041200
     31 HAQ2         1.4850     7.2250    11.2270 h1         1 53X       0.041200
     32 HAR1         2.5770     5.1530    10.5490 hc         1 53X       0.045367
     33 HAR3         1.6790     4.2060    11.7320 hc         1 53X       0.045367
     34 HAR2         0.8290     4.9510    10.3670 hc         1 53X       0.045367
@<TRIPOS>BOND
     1     1     2 1   
     2     2     3 1   
     3     2     4 1   
     4     4     5 2   
     5     4     6 1   
     6     5     9 1   
     7     5    21 1   
     8     6     7 1   
     9     6     8 1   
    10     7    22 1   
    11     7    23 1   
    12     7    24 1   
    13     8     9 2   
    14     9    10 1   
    15    10    11 2   
    16    10    12 1   
    17    11    18 1   
    18    11    25 1   
    19    12    13 ar  
    20    12    17 ar  
    21    13    14 ar  
    22    13    26 1   
    23    14    15 ar  
    24    14    27 1   
    25    15    16 ar  
    26    15    28 1   
    27    16    17 ar  
    28    16    29 1   
    29    17    18 1   
    30    18    19 1   
    31    19    20 1   
    32    19    30 1   
    33    19    31 1   
    34    20    32 1   
    35    20    33 1   
    36    20    34 1   
@<TRIPOS>SUBSTRUCTURE
     1 53X         1 TEMP              0 ****  ****    0 ROOT
