@<TRIPOS>MOLECULE
53Y
   22    24     1     0     0
SMALL
bcc


@<TRIPOS>ATOM
      1 C10         -2.6100     1.8760    -0.0290 cc         1 53Y      -0.206000
      2 C01          3.0460     1.1840     0.0330 ca         1 53Y      -0.139000
      3 C02          3.4030    -0.1610     0.0400 ca         1 53Y      -0.098000
      4 C03          2.4260    -1.1390     0.0310 ca         1 53Y      -0.162000
      5 C04          1.0790    -0.7860     0.0150 ca         1 53Y       0.072600
      6 C05          0.7250     0.5660     0.0090 ca         1 53Y      -0.041200
      7 C06          1.7100     1.5460     0.0170 ca         1 53Y      -0.110000
      8 N01          0.0950    -1.7600     0.0060 ns         1 53Y      -0.465100
      9 C07         -1.2480    -1.5230    -0.0070 c          1 53Y       0.754100
     10 C08         -1.6030    -0.1190    -0.0150 cd         1 53Y      -0.208900
     11 N           -0.6380     0.8660    -0.0060 na         1 53Y       0.058800
     12 C09         -2.8380     0.4870    -0.0290 cc         1 53Y      -0.105000
     13 C           -1.2490     2.0790    -0.0150 cd         1 53Y      -0.131300
     14 O           -2.0710    -2.4250    -0.0120 o          1 53Y      -0.608500
     15 H07         -3.3560     2.6540    -0.0390 ha         1 53Y       0.157000
     16 H01          3.8060     1.9520     0.0400 ha         1 53Y       0.141000
     17 H02          4.4450    -0.4470     0.0520 ha         1 53Y       0.140000
     18 H03          2.7000    -2.1870     0.0360 ha         1 53Y       0.141000
     19 H04          1.4410     2.5930     0.0120 ha         1 53Y       0.142000
     20 H05          0.3880    -2.7280     0.0110 hn         1 53Y       0.332500
     21 H06         -3.7890    -0.0200    -0.0380 ha         1 53Y       0.169000
     22 H           -0.6900     2.9990    -0.0100 h4         1 53Y       0.169000
@<TRIPOS>BOND
     1     1    12 1   
     2     1    13 2   
     3     1    15 1   
     4     2     3 ar  
     5     2     7 ar  
     6     2    16 1   
     7     3     4 ar  
     8     3    17 1   
     9     4     5 ar  
    10     4    18 1   
    11     5     6 ar  
    12     5     8 1   
    13     6     7 ar  
    14     6    11 1   
    15     7    19 1   
    16     8     9 1   
    17     8    20 1   
    18     9    10 1   
    19     9    14 2   
    20    10    11 1   
    21    10    12 2   
    22    11    13 1   
    23    12    21 1   
    24    13    22 1   
@<TRIPOS>SUBSTRUCTURE
     1 53Y         1 TEMP              0 ****  ****    0 ROOT
