@<TRIPOS>MOLECULE
53Y
   22    24     1     0     0
SMALL
No Charge or Current Charge


@<TRIPOS>ATOM
      1 C10         -2.5720     1.8840     0.0500 cc         1 53Y      -0.188000
      2 C01          3.0480     1.2000     0.0470 ca         1 53Y      -0.121000
      3 C02          3.4120    -0.1540     0.1270 ca         1 53Y      -0.080000
      4 C03          2.4230    -1.1490     0.0870 ca         1 53Y      -0.144000
      5 C04          1.0700    -0.7910    -0.0270 ca         1 53Y       0.072600
      6 C05          0.6880     0.5740    -0.1000 ca         1 53Y      -0.041200
      7 C06          1.6950     1.5670    -0.0710 ca         1 53Y      -0.092000
      8 N01          0.0730    -1.7950    -0.0590 ns         1 53Y      -0.398100
      9 C07         -1.2840    -1.5910    -0.0750 c          1 53Y       0.611600
     10 C08         -1.5910    -0.1520    -0.1200 cd         1 53Y      -0.259600
     11 N           -0.6770     0.8790    -0.2550 na         1 53Y       0.160200
     12 C09         -2.8020     0.4810    -0.0040 cc         1 53Y      -0.087000
     13 C           -1.2240     2.1440    -0.0400 cd         1 53Y      -0.164000
     14 O           -2.1030    -2.4950    -0.0240 o          1 53Y      -0.533000
     15 H07         -3.3550     2.6250     0.1900 ha         1 53Y       0.139000
     16 H01          3.8170     1.9700     0.0700 ha         1 53Y       0.123000
     17 H02          4.4610    -0.4310     0.2170 ha         1 53Y       0.122000
     18 H03          2.7090    -2.1970     0.1480 ha         1 53Y       0.123000
     19 H04          1.4480     2.6220    -0.1490 ha         1 53Y       0.124000
     20 H05          0.3760    -2.7590    -0.0190 hn         1 53Y       0.332500
     21 H06         -3.7750     0.0050     0.1030 ha         1 53Y       0.151000
     22 H           -0.6650     3.0700     0.0060 h4         1 53Y       0.151000
@<TRIPOS>BOND
     1     1    12 1   
     2     1    13 2   
     3     1    15 1   
     4     2     3 ar  
     5     2     7 ar  
     6     2    16 1   
     7     3     4 ar  
     8     3    17 1   
     9     4     5 ar  
    10     4    18 1   
    11     5     6 ar  
    12     5     8 1   
    13     6     7 ar  
    14     6    11 1   
    15     7    19 1   
    16     8     9 1   
    17     8    20 1   
    18     9    10 1   
    19     9    14 2   
    20    10    11 1   
    21    10    12 2   
    22    11    13 1   
    23    12    21 1   
    24    13    22 1   
@<TRIPOS>SUBSTRUCTURE
     1 53Y         1 TEMP              0 ****  ****    0 ROOT
