@<TRIPOS>MOLECULE
53Z
   40    41     1     0     0
SMALL
abcg2


@<TRIPOS>ATOM
      1 CAJ         -5.2020     0.8690    -0.2590 c5         1 53Z       0.100000
      2 CAH         -6.6730     0.6280     0.0570 c5         1 53Z      -0.094400
      3 CAI         -6.8550    -0.8520    -0.2630 c5         1 53Z      -0.094400
      4 CAK         -5.5580    -1.4820     0.2330 c5         1 53Z       0.100000
      5 NAT         -4.5800    -0.4100     0.0720 n          1 53Z      -0.412800
      6 C           -3.2700    -0.6300     0.2040 c          1 53Z       0.591100
      7 O           -2.8060    -1.7300     0.4880 o          1 53Z      -0.621100
      8 CA          -2.3740     0.5780    -0.0170 c3         1 53Z       0.043000
      9 N           -1.0020     0.1790     0.0700 ns         1 53Z      -0.523900
     10 CAP          0.0010     1.0900     0.0270 c          1 53Z       0.650100
     11 OAB         -0.2080     2.2830    -0.1760 o          1 53Z      -0.657100
     12 NAO          1.2510     0.5790     0.1900 ns         1 53Z      -0.513900
     13 CAM          2.4060     1.4420     0.3430 c3         1 53Z       0.167300
     14 CAS          3.6740     0.6520     0.1820 ca         1 53Z      -0.160300
     15 CAF          4.4740     0.3400     1.2750 ca         1 53Z      -0.052000
     16 CAD          5.6380    -0.4010     1.1360 ca         1 53Z      -0.183500
     17 CAR          6.0400    -0.8660    -0.1200 ca         1 53Z       0.298000
     18 NAA          7.1650    -1.6510    -0.2630 nv         1 53Z      -1.072000
     19 CAE          5.2350    -0.5540    -1.2250 ca         1 53Z      -0.183500
     20 CAG          4.0780     0.1870    -1.0690 ca         1 53Z      -0.052000
     21 H1          -5.0600     1.1060    -1.3170 h1         1 53Z       0.054200
     22 H2          -4.7790     1.6860     0.3270 h1         1 53Z       0.054200
     23 H3          -6.8630     0.8150     1.1160 hc         1 53Z       0.056200
     24 H4          -7.3270     1.2800    -0.5200 hc         1 53Z       0.056200
     25 H5          -7.7310    -1.2900     0.2130 hc         1 53Z       0.056200
     26 H6          -6.9550    -0.9940    -1.3410 hc         1 53Z       0.056200
     27 H7          -5.6310    -1.7760     1.2830 h1         1 53Z       0.054200
     28 H8          -5.2690    -2.3640    -0.3390 h1         1 53Z       0.054200
     29 H9          -2.6070     1.0210    -0.9920 h1         1 53Z       0.063200
     30 H10         -2.6180     1.3410     0.7310 h1         1 53Z       0.063200
     31 H11         -0.8220    -0.7880     0.2910 hn         1 53Z       0.338500
     32 H12          1.3430    -0.3570     0.5530 hn         1 53Z       0.307500
     33 H13          2.3540     2.2270    -0.4120 h1         1 53Z       0.053200
     34 H14          2.4070     1.9420     1.3190 h1         1 53Z       0.053200
     35 H15          4.1880     0.6850     2.2620 ha         1 53Z       0.114000
     36 H16          6.2410    -0.6220     2.0090 ha         1 53Z       0.112500
     37 H17          7.8600    -1.5540     0.4600 hn         1 53Z       0.448500
     38 H18          7.5800    -1.6560    -1.1810 hn         1 53Z       0.448500
     39 H19          5.5270    -0.8940    -2.2120 ha         1 53Z       0.112500
     40 H20          3.4790     0.4140    -1.9440 ha         1 53Z       0.114000
@<TRIPOS>BOND
     1     1     2 1   
     2     1     5 1   
     3     1    21 1   
     4     1    22 1   
     5     2     3 1   
     6     2    23 1   
     7     2    24 1   
     8     3     4 1   
     9     3    25 1   
    10     3    26 1   
    11     4     5 1   
    12     4    27 1   
    13     4    28 1   
    14     5     6 1   
    15     6     7 2   
    16     6     8 1   
    17     8     9 1   
    18     8    29 1   
    19     8    30 1   
    20     9    10 1   
    21     9    31 1   
    22    10    11 2   
    23    10    12 1   
    24    12    13 1   
    25    12    32 1   
    26    13    14 1   
    27    13    33 1   
    28    13    34 1   
    29    14    15 ar  
    30    14    20 ar  
    31    15    16 ar  
    32    15    35 1   
    33    16    17 ar  
    34    16    36 1   
    35    17    18 1   
    36    17    19 ar  
    37    18    37 1   
    38    18    38 1   
    39    19    20 ar  
    40    19    39 1   
    41    20    40 1   
@<TRIPOS>SUBSTRUCTURE
     1 53Z         1 TEMP              0 ****  ****    0 ROOT
