@<TRIPOS>MOLECULE
53Z
   40    41     1     0     0
SMALL
No Charge or Current Charge


@<TRIPOS>ATOM
      1 CAJ         -5.3390     0.8630     0.0220 c5         1 53Z       0.100000
      2 CAH         -6.7960     0.4590     0.3660 c5         1 53Z      -0.094400
      3 CAI         -6.9090    -0.9290    -0.3130 c5         1 53Z      -0.094400
      4 CAK         -5.5740    -1.5950     0.1100 c5         1 53Z       0.100000
      5 NAT         -4.6470    -0.4440     0.0810 n          1 53Z      -0.412800
      6 C           -3.2460    -0.5930     0.1040 c          1 53Z       0.591100
      7 O           -2.7400    -1.7100     0.1640 o          1 53Z      -0.621100
      8 CA          -2.3770     0.6940     0.0460 c3         1 53Z       0.043000
      9 N           -0.9280     0.3970     0.0450 ns         1 53Z      -0.523900
     10 CAP          0.0530     1.3440    -0.0080 c          1 53Z       0.650100
     11 OAB         -0.1720     2.5410    -0.0610 o          1 53Z      -0.657100
     12 NAO          1.3080     0.8100     0.0030 ns         1 53Z      -0.513900
     13 CAM          2.5310     1.6020    -0.0450 c3         1 53Z       0.167300
     14 CAS          3.7590     0.7060    -0.0170 ca         1 53Z      -0.160300
     15 CAF          4.3430     0.3420     1.2120 ca         1 53Z      -0.052000
     16 CAD          5.4770    -0.4890     1.2340 ca         1 53Z      -0.183500
     17 CAR          6.0310    -0.9590     0.0360 ca         1 53Z       0.298000
     18 NAA          7.1350    -1.7660     0.0610 nv         1 53Z      -1.072000
     19 CAE          5.4510    -0.6010    -1.1890 ca         1 53Z      -0.183500
     20 CAG          4.3170     0.2290    -1.2190 ca         1 53Z      -0.052000
     21 H1          -5.2680     1.2930    -0.9860 h1         1 53Z       0.054200
     22 H2          -4.9400     1.5880     0.7430 h1         1 53Z       0.054200
     23 H3          -6.9380     0.3810     1.4500 hc         1 53Z       0.056200
     24 H4          -7.5310     1.1800    -0.0100 hc         1 53Z       0.056200
     25 H5          -7.7850    -1.4970     0.0200 hc         1 53Z       0.056200
     26 H6          -6.9730    -0.8320    -1.4030 hc         1 53Z       0.056200
     27 H7          -5.6350    -2.0160     1.1220 h1         1 53Z       0.054200
     28 H8          -5.2760    -2.3920    -0.5840 h1         1 53Z       0.054200
     29 H9          -2.6380     1.2470    -0.8650 h1         1 53Z       0.063200
     30 H10         -2.6200     1.3140     0.9180 h1         1 53Z       0.063200
     31 H11         -0.6410    -0.5740     0.0870 hn         1 53Z       0.338500
     32 H12          1.3930    -0.1960     0.0480 hn         1 53Z       0.307500
     33 H13          2.5300     2.2060    -0.9620 h1         1 53Z       0.053200
     34 H14          2.5480     2.2870     0.8130 h1         1 53Z       0.053200
     35 H15          3.9190     0.7010     2.1470 ha         1 53Z       0.114000
     36 H16          5.9210    -0.7650     2.1870 ha         1 53Z       0.112500
     37 H17          7.6400    -1.9040     0.9340 hn         1 53Z       0.448500
     38 H18          7.6230    -1.9860    -0.8050 hn         1 53Z       0.448500
     39 H19          5.8750    -0.9650    -2.1210 ha         1 53Z       0.112500
     40 H20          3.8720     0.5000    -2.1740 ha         1 53Z       0.114000
@<TRIPOS>BOND
     1     1     2 1   
     2     1     5 1   
     3     1    21 1   
     4     1    22 1   
     5     2     3 1   
     6     2    23 1   
     7     2    24 1   
     8     3     4 1   
     9     3    25 1   
    10     3    26 1   
    11     4     5 1   
    12     4    27 1   
    13     4    28 1   
    14     5     6 1   
    15     6     7 2   
    16     6     8 1   
    17     8     9 1   
    18     8    29 1   
    19     8    30 1   
    20     9    10 1   
    21     9    31 1   
    22    10    11 2   
    23    10    12 1   
    24    12    13 1   
    25    12    32 1   
    26    13    14 1   
    27    13    33 1   
    28    13    34 1   
    29    14    15 ar  
    30    14    20 ar  
    31    15    16 ar  
    32    15    35 1   
    33    16    17 ar  
    34    16    36 1   
    35    17    18 1   
    36    17    19 ar  
    37    18    37 1   
    38    18    38 1   
    39    19    20 ar  
    40    19    39 1   
    41    20    40 1   
@<TRIPOS>SUBSTRUCTURE
     1 53Z         1 TEMP              0 ****  ****    0 ROOT
