@<TRIPOS>MOLECULE
540
   42    45     1     0     0
SMALL
bcc


@<TRIPOS>ATOM
      1 C1          -2.0850    -0.3350     2.2250 c3         1 540      -0.050800
      2 F1           0.5130    -3.8180    -0.2950 f          1 540      -0.132900
      3 N1          -4.6280    -1.7550    -0.1520 nb         1 540      -0.652000
      4 O1           4.1530    -0.8810     0.3940 os         1 540      -0.273900
      5 C2          -2.8430    -0.5820     0.9580 ca         1 540      -0.166600
      6 N2          -1.7610     2.3800    -0.4270 nc         1 540      -0.553300
      7 C3          -3.9000    -1.4880     0.9240 ca         1 540       0.396200
      8 N3          -0.1510     0.9080    -0.1580 na         1 540      -0.042200
      9 C4          -4.3380    -1.1090    -1.2730 ca         1 540       0.392200
     10 N4           2.5830     1.2210     0.1820 nc         1 540      -0.643000
     11 C5          -3.3110    -0.1830    -1.3650 ca         1 540      -0.208300
     12 C6          -2.5420     0.0760    -0.2390 ca         1 540      -0.069900
     13 C7          -1.4870     1.1010    -0.2970 cd         1 540       0.410400
     14 C8          -0.5970     3.0640    -0.3520 cc         1 540       0.070400
     15 C9           0.4380     2.1680    -0.1730 cd         1 540      -0.226600
     16 C10          0.6380    -0.2410    -0.0980 ca         1 540      -0.007600
     17 C11          0.1160    -1.5260    -0.2500 ca         1 540      -0.229000
     18 C12          0.9930    -2.5760    -0.1580 ca         1 540       0.202900
     19 C13          2.3520    -2.4300     0.0680 ca         1 540      -0.288000
     20 C14          2.8640    -1.1490     0.1930 ca         1 540       0.156800
     21 C15          2.0080    -0.0230     0.0990 ca         1 540       0.319600
     22 C16          1.8490     2.2700     0.0310 cd         1 540       0.483600
     23 C17          2.4910     3.6170     0.0900 c3         1 540      -0.145400
     24 C18          5.0700    -1.9590     0.4580 c3         1 540       0.116700
     25 C19         -0.5670     4.5510    -0.4450 c3         1 540      -0.016900
     26 H1          -2.0000     0.7310     2.4380 hc         1 540       0.051367
     27 H1A         -2.5800    -0.8080     3.0710 hc         1 540       0.051367
     28 H1B         -1.0720    -0.7390     2.1750 hc         1 540       0.051367
     29 H3          -4.1680    -2.0200     1.8310 h4         1 540       0.022100
     30 H4          -4.9470    -1.3350    -2.1420 h4         1 540       0.024100
     31 H5          -3.1100     0.3200    -2.3010 ha         1 540       0.154000
     32 H11         -0.9270    -1.7140    -0.4490 ha         1 540       0.172000
     33 H13          2.9740    -3.3120     0.1310 ha         1 540       0.162000
     34 H17          3.5560     3.5100     0.2820 hc         1 540       0.058700
     35 H17A         2.3620     4.1600    -0.8470 hc         1 540       0.058700
     36 H17B         2.0540     4.2290     0.8800 hc         1 540       0.058700
     37 H18          6.0500    -1.5160     0.6100 h1         1 540       0.048033
     38 H18A         4.8510    -2.6310     1.2910 h1         1 540       0.048033
     39 H18B         5.0810    -2.5340    -0.4710 h1         1 540       0.048033
     40 H19         -0.2490     5.0120     0.4920 hc         1 540       0.050033
     41 H19A         0.1090     4.8990    -1.2250 hc         1 540       0.050033
     42 H19B        -1.5630     4.9200    -0.6760 hc         1 540       0.050033
@<TRIPOS>BOND
     1     1     5 1   
     2     1    26 1   
     3     1    27 1   
     4     1    28 1   
     5     2    18 1   
     6     3     7 ar  
     7     3     9 ar  
     8     4    20 1   
     9     4    24 1   
    10     5     7 ar  
    11     5    12 ar  
    12     6    13 2   
    13     6    14 1   
    14     7    29 1   
    15     8    13 1   
    16     8    15 1   
    17     8    16 1   
    18     9    11 ar  
    19     9    30 1   
    20    10    21 1   
    21    10    22 2   
    22    11    12 ar  
    23    11    31 1   
    24    12    13 1   
    25    14    15 2   
    26    14    25 1   
    27    15    22 1   
    28    16    17 ar  
    29    16    21 ar  
    30    17    18 ar  
    31    17    32 1   
    32    18    19 ar  
    33    19    20 ar  
    34    19    33 1   
    35    20    21 ar  
    36    22    23 1   
    37    23    34 1   
    38    23    35 1   
    39    23    36 1   
    40    24    37 1   
    41    24    38 1   
    42    24    39 1   
    43    25    40 1   
    44    25    41 1   
    45    25    42 1   
@<TRIPOS>SUBSTRUCTURE
     1 540         1 TEMP              0 ****  ****    0 ROOT
