@<TRIPOS>MOLECULE
540
   42    45     1     0     0
SMALL
No Charge or Current Charge


@<TRIPOS>ATOM
      1 C1          -2.0840    -0.5510     2.2690 c3         1 540      -0.050800
      2 F1           0.5610    -3.7620    -0.6080 f          1 540      -0.168000
      3 N1          -4.8300    -1.7050    -0.1010 nb         1 540      -0.652000
      4 O1           4.2580    -0.9000     0.4890 os         1 540      -0.297100
      5 C2          -2.9010    -0.6810     0.9840 ca         1 540      -0.101300
      6 N2          -1.7260     2.3110    -0.6220 nc         1 540      -0.553300
      7 C3          -4.0080    -1.5580     0.9630 ca         1 540       0.330900
      8 N3          -0.2020     0.9560     0.2330 na         1 540       0.059200
      9 C4          -4.5750    -0.9570    -1.1970 ca         1 540       0.326900
     10 N4           2.6420     1.3320     0.4770 nc         1 540      -0.643000
     11 C5          -3.4990    -0.0600    -1.2740 ca         1 540      -0.125000
     12 C6          -2.6150     0.0760    -0.1830 ca         1 540      -0.069900
     13 C7          -1.4990     1.0430    -0.2720 cd         1 540       0.410400
     14 C8          -0.5550     3.0020    -0.4300 cc         1 540       0.070400
     15 C9           0.4170     2.1460     0.0270 cd         1 540      -0.212000
     16 C10          0.6420    -0.1500     0.0480 ca         1 540       0.007000
     17 C11          0.1660    -1.4460    -0.2700 ca         1 540      -0.211000
     18 C12          1.0390    -2.5340    -0.3150 ca         1 540       0.238000
     19 C13          2.3950    -2.3700    -0.0430 ca         1 540      -0.270000
     20 C14          2.9030    -1.0870     0.2470 ca         1 540       0.222100
     21 C15          2.0420     0.0520     0.2710 ca         1 540       0.189000
     22 C16          1.8170     2.3600     0.2520 cd         1 540       0.418300
     23 C17          2.4790     3.7120     0.2020 c3         1 540      -0.145400
     24 C18          5.2080    -1.9800     0.4790 c3         1 540       0.139900
     25 C19         -0.4730     4.4610    -0.8000 c3         1 540      -0.016900
     26 H1          -1.8540     0.4970     2.4950 hc         1 540       0.051367
     27 H1A         -2.6310    -0.9490     3.1320 hc         1 540       0.051367
     28 H1B         -1.1400    -1.1030     2.2020 hc         1 540       0.051367
     29 H3          -4.2550    -2.1590     1.8380 h4         1 540       0.022100
     30 H4          -5.2550    -1.0810    -2.0390 h4         1 540       0.024100
     31 H5          -3.3490     0.5150    -2.1840 ha         1 540       0.136000
     32 H11         -0.8760    -1.6490    -0.4770 ha         1 540       0.154000
     33 H13          3.0340    -3.2460    -0.0770 ha         1 540       0.144000
     34 H17          3.5230     3.6690     0.5360 hc         1 540       0.058700
     35 H17A         2.4790     4.1100    -0.8180 hc         1 540       0.058700
     36 H17B         1.9620     4.4240     0.8540 hc         1 540       0.058700
     37 H18          6.2140    -1.6010     0.6990 h1         1 540       0.048033
     38 H18A         4.9560    -2.7290     1.2400 h1         1 540       0.048033
     39 H18B         5.2370    -2.4670    -0.5030 h1         1 540       0.048033
     40 H19         -0.1930     5.0720     0.0660 hc         1 540       0.050033
     41 H19A         0.2630     4.6250    -1.5940 hc         1 540       0.050033
     42 H19B        -1.4380     4.8330    -1.1650 hc         1 540       0.050033
@<TRIPOS>BOND
     1     1     5 1   
     2     1    26 1   
     3     1    27 1   
     4     1    28 1   
     5     2    18 1   
     6     3     7 ar  
     7     3     9 ar  
     8     4    20 1   
     9     4    24 1   
    10     5     7 ar  
    11     5    12 ar  
    12     6    13 2   
    13     6    14 1   
    14     7    29 1   
    15     8    13 1   
    16     8    15 1   
    17     8    16 1   
    18     9    11 ar  
    19     9    30 1   
    20    10    21 1   
    21    10    22 2   
    22    11    12 ar  
    23    11    31 1   
    24    12    13 1   
    25    14    15 2   
    26    14    25 1   
    27    15    22 1   
    28    16    17 ar  
    29    16    21 ar  
    30    17    18 ar  
    31    17    32 1   
    32    18    19 ar  
    33    19    20 ar  
    34    19    33 1   
    35    20    21 ar  
    36    22    23 1   
    37    23    34 1   
    38    23    35 1   
    39    23    36 1   
    40    24    37 1   
    41    24    38 1   
    42    24    39 1   
    43    25    40 1   
    44    25    41 1   
    45    25    42 1   
@<TRIPOS>SUBSTRUCTURE
     1 540         1 TEMP              0 ****  ****    0 ROOT
