@<TRIPOS>MOLECULE
541
   59    62     1     0     0
SMALL
abcg2


@<TRIPOS>ATOM
      1 C20         -7.8480     1.8390     0.1210 ca         1 541      -0.079000
      2 C1          -7.4560     2.9910     0.7500 ca         1 541      -0.106000
      3 C2          -6.1070     3.1820     1.1030 ca         1 541      -0.105000
      4 C3          -5.1760     2.2160     0.8240 ca         1 541      -0.101000
      5 C21         -5.5530     1.0170     0.1790 ca         1 541      -0.078000
      6 C22         -6.9100     0.8280    -0.1780 ca         1 541       0.275000
      7 N1          -7.3570    -0.2920    -0.8000 nb         1 541      -0.668000
      8 C5          -6.5020    -1.2370    -1.0790 ca         1 541       0.371300
      9 C6          -5.1220    -1.1410    -0.7610 ca         1 541      -0.137000
     10 C7          -4.6380    -0.0280    -0.1370 ca         1 541      -0.042300
     11 C8          -3.1920     0.1420     0.2200 c3         1 541       0.205900
     12 C9          -1.1510    -1.0530     0.1040 ca         1 541       0.145100
     13 O2          -2.4800    -1.0150    -0.1340 os         1 541      -0.345100
     14 C10         -0.4910    -2.2270    -0.2490 ca         1 541      -0.169500
     15 C11          0.8730    -2.3520    -0.0440 ca         1 541      -0.061000
     16 C12          1.6220    -1.3220     0.5200 ca         1 541      -0.091300
     17 C13          0.9430    -0.1560     0.8630 ca         1 541      -0.061000
     18 C14         -0.4220    -0.0080     0.6660 ca         1 541      -0.169500
     19 C15          3.4850    -1.2480     2.2550 c5         1 541      -0.085400
     20 C16          3.1110    -1.4200     0.7720 c5         1 541      -0.071700
     21 C17          3.7430    -2.6950     0.2050 c3         1 541      -0.083100
     22 C18          3.8460    -0.2520     0.1150 c          1 541       0.565000
     23 O3           3.6960     0.1360    -1.0310 o          1 541      -0.535000
     24 C19          4.8220    -0.5110     2.2240 c5         1 541       0.100000
     25 C23          5.7480     1.1910     0.5820 c3         1 541       0.046700
     26 C24          6.5440     0.5740    -0.5760 c          1 541       0.593100
     27 N2           6.9820     1.4500    -1.4960 ns         1 541      -0.376400
     28 O1           7.6140     0.9830    -2.6100 oh         1 541      -0.422100
     29 O4           6.8180    -0.6100    -0.5890 o          1 541      -0.570100
     30 C25          5.1760     2.5880     0.3620 c3         1 541      -0.106100
     31 N3           4.7360     0.2470     0.9910 n          1 541      -0.405800
     32 H20         -8.8820     1.6790    -0.1580 ha         1 541       0.131000
     33 H1          -8.1840     3.7590     0.9770 ha         1 541       0.117000
     34 H2          -5.8050     4.0950     1.5990 ha         1 541       0.114000
     35 H3          -4.1450     2.3840     1.1050 ha         1 541       0.109000
     36 H41         -6.9230    -3.3360    -1.0850 hc         1 541       0.053367
     37 H42         -8.0470    -2.3650    -2.0440 hc         1 541       0.053367
     38 H43         -6.4160    -2.7080    -2.6410 hc         1 541       0.053367
     39 H6          -4.4730    -1.9650    -1.0240 ha         1 541       0.139000
     40 H81         -3.1030     0.3380     1.2960 h1         1 541       0.048200
     41 H82         -2.7940     1.0220    -0.3010 h1         1 541       0.048200
     42 H10         -1.0500    -3.0440    -0.6880 ha         1 541       0.121000
     43 H11          1.3450    -3.2790    -0.3370 ha         1 541       0.114000
     44 H13          1.4820     0.6760     1.3030 ha         1 541       0.114000
     45 H14         -0.8900     0.9220     0.9570 ha         1 541       0.121000
     46 H151         3.5470    -2.1990     2.7830 hc         1 541       0.060700
     47 H152         2.7440    -0.6340     2.7680 hc         1 541       0.060700
     48 H171         3.3280    -3.5800     0.6880 hc         1 541       0.050033
     49 H172         3.5830    -2.7810    -0.8700 hc         1 541       0.050033
     50 H173         4.8200    -2.7020     0.3770 hc         1 541       0.050033
     51 H191         5.6760    -1.1940     2.1980 h1         1 541       0.049700
     52 H192         4.9470     0.1530     3.0800 h1         1 541       0.049700
     53 H23          6.4660     1.2550     1.4050 h1         1 541       0.069700
     54 HN2          6.5990     2.3770    -1.5980 hn         1 541       0.338500
     55 HO1          8.5590     1.0970    -2.4500 ho         1 541       0.442000
     56 H251         5.9690     3.3220     0.2150 hc         1 541       0.051700
     57 H252         4.4970     2.6270    -0.4880 hc         1 541       0.051700
     58 H253         4.6260     2.8910     1.2520 hc         1 541       0.051700
     59 C4          -7.0050    -2.4760    -1.7530 c3         1 541      -0.150400
@<TRIPOS>BOND
     1     1     2 ar  
     2     1     6 ar  
     3     1    32 1   
     4     2     3 ar  
     5     2    33 1   
     6     3     4 ar  
     7     3    34 1   
     8     4     5 ar  
     9     4    35 1   
    10     5     6 ar  
    11     5    10 ar  
    12     6     7 ar  
    13     7     8 ar  
    14     8     9 ar  
    15     8    59 1   
    16     9    10 ar  
    17     9    39 1   
    18    10    11 1   
    19    11    13 1   
    20    11    40 1   
    21    11    41 1   
    22    12    13 1   
    23    12    14 ar  
    24    12    18 ar  
    25    14    15 ar  
    26    14    42 1   
    27    15    16 ar  
    28    15    43 1   
    29    16    17 ar  
    30    16    20 1   
    31    17    18 ar  
    32    17    44 1   
    33    18    45 1   
    34    19    20 1   
    35    19    24 1   
    36    19    46 1   
    37    19    47 1   
    38    20    21 1   
    39    20    22 1   
    40    21    48 1   
    41    21    49 1   
    42    21    50 1   
    43    22    23 2   
    44    22    31 1   
    45    24    31 1   
    46    24    51 1   
    47    24    52 1   
    48    25    26 1   
    49    25    30 1   
    50    25    31 1   
    51    25    53 1   
    52    26    27 1   
    53    26    29 2   
    54    27    28 1   
    55    27    54 1   
    56    28    55 1   
    57    30    56 1   
    58    30    57 1   
    59    30    58 1   
    60    36    59 1   
    61    37    59 1   
    62    38    59 1   
@<TRIPOS>SUBSTRUCTURE
     1 541         1 TEMP              0 ****  ****    0 ROOT
