@<TRIPOS>MOLECULE
541
   59    62     1     0     0
SMALL
No Charge or Current Charge


@<TRIPOS>ATOM
      1 C20         -7.9350     1.9680    -0.0840 ca         1 541      -0.079000
      2 C1          -7.4780     3.2550     0.2430 ca         1 541      -0.106000
      3 C2          -6.1110     3.4750     0.4560 ca         1 541      -0.105000
      4 C3          -5.2020     2.4120     0.3430 ca         1 541      -0.101000
      5 C21         -5.6540     1.1110     0.0130 ca         1 541      -0.078000
      6 C22         -7.0430     0.8860    -0.2040 ca         1 541       0.275000
      7 N1          -7.5350    -0.3330    -0.5210 nb         1 541      -0.668000
      8 C5          -6.6780    -1.3670    -0.6370 ca         1 541       0.371300
      9 C6          -5.2970    -1.2360    -0.4380 ca         1 541      -0.137000
     10 C7          -4.7510     0.0220    -0.1060 ca         1 541      -0.042300
     11 C8          -3.2410     0.2040     0.1180 c3         1 541       0.205900
     12 C9          -1.1660    -1.1310     0.0910 ca         1 541       0.145100
     13 O2          -2.5340    -1.0370    -0.0570 os         1 541      -0.345100
     14 C10         -0.5690    -2.3840    -0.0990 ca         1 541      -0.169500
     15 C11          0.8200    -2.5460     0.0380 ca         1 541      -0.061000
     16 C12          1.6490    -1.4480     0.3680 ca         1 541      -0.091300
     17 C13          1.0330    -0.1890     0.5620 ca         1 541      -0.061000
     18 C14         -0.3560    -0.0270     0.4250 ca         1 541      -0.169500
     19 C15          3.4540    -1.4670     2.0680 c5         1 541      -0.085400
     20 C16          3.1820    -1.5950     0.5300 c5         1 541      -0.071700
     21 C17          3.7920    -2.8970    -0.0700 c3         1 541      -0.083100
     22 C18          3.9580    -0.3920    -0.0570 c          1 541       0.565000
     23 O3           3.7620     0.2160    -1.1020 o          1 541      -0.535000
     24 C19          4.8970    -0.8900     2.1200 c5         1 541       0.100000
     25 C23          5.9290     1.0110     0.6580 c3         1 541       0.046700
     26 C24          6.6990     0.9020    -0.7030 c          1 541       0.593100
     27 N2           7.2140     2.0910    -1.2180 ns         1 541      -0.376400
     28 O1           7.7340     2.1570    -2.5690 oh         1 541      -0.422100
     29 O4           6.8770    -0.1700    -1.2740 o          1 541      -0.570100
     30 C25          5.3430     2.4080     0.9850 c3         1 541      -0.106100
     31 N3           4.9250    -0.0620     0.9030 n          1 541      -0.405800
     32 H20         -8.9970     1.8040    -0.2480 ha         1 541       0.131000
     33 H1          -8.1840     4.0780     0.3310 ha         1 541       0.117000
     34 H2          -5.7540     4.4710     0.7100 ha         1 541       0.114000
     35 H3          -4.1490     2.6200     0.5150 ha         1 541       0.109000
     36 H41         -7.5410    -3.2710    -0.0820 hc         1 541       0.053367
     37 H42         -8.2110    -2.5920    -1.5760 hc         1 541       0.053367
     38 H43         -6.5990    -3.3180    -1.5820 hc         1 541       0.053367
     39 H6          -4.6680    -2.1150    -0.5440 ha         1 541       0.139000
     40 H81         -3.0810     0.5870     1.1340 h1         1 541       0.048200
     41 H82         -2.8680     0.9520    -0.5940 h1         1 541       0.048200
     42 H10         -1.1890    -3.2400    -0.3540 ha         1 541       0.121000
     43 H11          1.2360    -3.5380    -0.1130 ha         1 541       0.114000
     44 H13          1.6340     0.6790     0.8250 ha         1 541       0.114000
     45 H14         -0.7820     0.9590     0.5830 ha         1 541       0.121000
     46 H151         3.3600    -2.4180     2.6060 hc         1 541       0.060700
     47 H152         2.7670    -0.7630     2.5520 hc         1 541       0.060700
     48 H171         3.4280    -3.7920     0.4490 hc         1 541       0.050033
     49 H172         3.5430    -2.9940    -1.1330 hc         1 541       0.050033
     50 H173         4.8850    -2.9020     0.0110 hc         1 541       0.050033
     51 H191         5.6530    -1.6840     2.0630 h1         1 541       0.049700
     52 H192         5.0740    -0.3010     3.0300 h1         1 541       0.049700
     53 H23          6.7200     0.8550     1.4030 h1         1 541       0.069700
     54 HN2          6.9350     2.9790    -0.8030 hn         1 541       0.338500
     55 HO1          8.6140     2.5890    -2.4590 ho         1 541       0.442000
     56 H251         6.1290     3.1690     1.0420 hc         1 541       0.051700
     57 H252         4.6110     2.7110     0.2260 hc         1 541       0.051700
     58 H253         4.8340     2.3880     1.9560 hc         1 541       0.051700
     59 C4          -7.2920    -2.7090    -0.9900 c3         1 541      -0.150400
@<TRIPOS>BOND
     1     1     2 ar  
     2     1     6 ar  
     3     1    32 1   
     4     2     3 ar  
     5     2    33 1   
     6     3     4 ar  
     7     3    34 1   
     8     4     5 ar  
     9     4    35 1   
    10     5     6 ar  
    11     5    10 ar  
    12     6     7 ar  
    13     7     8 ar  
    14     8     9 ar  
    15     8    59 1   
    16     9    10 ar  
    17     9    39 1   
    18    10    11 1   
    19    11    13 1   
    20    11    40 1   
    21    11    41 1   
    22    12    13 1   
    23    12    14 ar  
    24    12    18 ar  
    25    14    15 ar  
    26    14    42 1   
    27    15    16 ar  
    28    15    43 1   
    29    16    17 ar  
    30    16    20 1   
    31    17    18 ar  
    32    17    44 1   
    33    18    45 1   
    34    19    20 1   
    35    19    24 1   
    36    19    46 1   
    37    19    47 1   
    38    20    21 1   
    39    20    22 1   
    40    21    48 1   
    41    21    49 1   
    42    21    50 1   
    43    22    23 2   
    44    22    31 1   
    45    24    31 1   
    46    24    51 1   
    47    24    52 1   
    48    25    26 1   
    49    25    30 1   
    50    25    31 1   
    51    25    53 1   
    52    26    27 1   
    53    26    29 2   
    54    27    28 1   
    55    27    54 1   
    56    28    55 1   
    57    30    56 1   
    58    30    57 1   
    59    30    58 1   
    60    36    59 1   
    61    37    59 1   
    62    38    59 1   
@<TRIPOS>SUBSTRUCTURE
     1 541         1 TEMP              0 ****  ****    0 ROOT
