@<TRIPOS>MOLECULE
542
   64    68     1     0     0
SMALL
No Charge or Current Charge


@<TRIPOS>ATOM
      1 F30         -0.3920    -5.1760     0.7960 f          1 542      -0.179000
      2 C29          0.5030    -4.2350     0.4250 ca         1 542       0.169000
      3 C26          1.8440    -4.3590     0.8120 ca         1 542      -0.156500
      4 C25          2.7780    -3.3810     0.4260 ca         1 542      -0.082500
      5 C28          0.0880    -3.1390    -0.3440 ca         1 542      -0.156500
      6 C27          1.0210    -2.1590    -0.7290 ca         1 542      -0.082500
      7 C24          2.3860    -2.2610    -0.3510 cp         1 542      -0.045000
      8 C22          3.3820    -1.2200    -0.7580 cp         1 542      -0.048000
      9 C21          3.0280     0.1510    -0.7940 ca         1 542      -0.060000
     10 C23          4.7020    -1.5790    -1.1120 ca         1 542      -0.142000
     11 C33          5.6410    -0.6060    -1.4880 ca         1 542       0.086100
     12 O34          6.9120    -1.0020    -1.8260 oh         1 542      -0.508100
     13 C31          5.2700     0.7620    -1.5160 ca         1 542       0.202100
     14 O32          6.1890     1.7090    -1.8800 oh         1 542      -0.525100
     15 C20          3.9550     1.1570    -1.1700 ca         1 542      -0.249600
     16 C18          3.5600     2.6180    -1.1960 c          1 542       0.631700
     17 O19          4.3650     3.4990    -1.4730 o          1 542      -0.644100
     18 N17          2.2560     2.9180    -0.8930 ns         1 542      -0.486900
     19 C16          1.7030     4.2660    -0.8540 c3         1 542       0.129200
     20 C15          0.2230     4.1770    -0.5700 c2         1 542      -0.223200
     21 C14         -0.3210     3.6990     0.5650 c2         1 542      -0.230200
     22 C6          -1.8370     3.6220     0.6930 c5         1 542       0.196500
     23 C4          -2.2620     3.3560     2.1690 c5         1 542       0.092300
     24 O5          -2.2910     4.5370     2.9950 oh         1 542      -0.706000
     25 C2          -3.6970     2.8110     1.9230 c5         1 542       0.102300
     26 O3          -4.5840     3.9240     1.7370 oh         1 542      -0.699000
     27 O13         -2.2560     2.4330     0.0020 os         1 542      -0.436000
     28 C1          -3.4790     1.9530     0.6160 c5         1 542       0.321300
     29 N10         -3.3630     0.5020     0.7760 na         1 542      -0.310300
     30 C9          -2.8820    -0.1700     1.9060 cc         1 542       0.409700
     31 C11         -3.7530    -0.4440    -0.1270 ca         1 542       0.121500
     32 N40         -4.2750    -0.3500    -1.3650 nb         1 542      -0.220000
     33 C39         -4.5460    -1.5270    -1.9780 ca         1 542       0.182900
     34 N38         -4.3490    -2.7680    -1.4730 nb         1 542      -0.294000
     35 C35         -3.8310    -2.8310    -0.2300 ca         1 542       0.442900
     36 C12         -3.5130    -1.6520     0.4770 ca         1 542      -0.097600
     37 N8          -2.9650    -1.5050     1.7560 nd         1 542      -0.571100
     38 N7          -3.6030    -4.0820     0.3280 nu         1 542      -0.912100
     39 C36         -3.6010    -5.3810    -0.3670 c3         1 542       0.220100
     40 H26          2.1580    -5.2100     1.4110 ha         1 542       0.133500
     41 H25          3.8130    -3.4850     0.7450 ha         1 542       0.131500
     42 H28         -0.9520    -3.0500    -0.6450 ha         1 542       0.133500
     43 H27          0.6850    -1.3220    -1.3360 ha         1 542       0.131500
     44 H21          2.0160     0.4170    -0.5010 ha         1 542       0.112000
     45 H23          4.9910    -2.6270    -1.1050 ha         1 542       0.118000
     46 HO34         6.9720    -1.9780    -1.7480 ho         1 542       0.460000
     47 HO32         5.7150     2.5800    -1.8070 ho         1 542       0.518000
     48 HN17         1.6390     2.1460    -0.6870 hn         1 542       0.320500
     49 H16          2.2100     4.8440    -0.0700 h1         1 542       0.070700
     50 H16A         1.8800     4.7590    -1.8200 h1         1 542       0.070700
     51 H15         -0.4080     4.5190    -1.3940 ha         1 542       0.200000
     52 H14          0.3230     3.3480     1.3740 ha         1 542       0.183000
     53 H6          -2.3490     4.4960     0.2650 h1         1 542       0.093700
     54 H4          -1.6280     2.5790     2.6220 h1         1 542       0.057700
     55 HO5         -1.3550     4.8070     3.1580 ho         1 542       0.519000
     56 H2          -4.0390     2.1900     2.7640 h1         1 542       0.080700
     57 HO3         -4.1450     4.6440     2.2610 ho         1 542       0.526000
     58 H1          -4.3270     2.1140    -0.0630 h2         1 542       0.131700
     59 H9          -2.5020     0.3480     2.7780 h5         1 542       0.072800
     60 H39         -4.9670    -1.4690    -2.9810 h5         1 542       0.048100
     61 HN7         -3.1580    -4.0360     1.2470 hn         1 542       0.513000
     62 H36         -3.3780    -6.1940     0.3370 h1         1 542       0.045700
     63 H36A        -4.5810    -5.5770    -0.8230 h1         1 542       0.045700
     64 H36B        -2.8390    -5.3910    -1.1590 h1         1 542       0.045700
@<TRIPOS>BOND
     1     1     2 1   
     2     2     3 ar  
     3     2     5 ar  
     4     3     4 ar  
     5     3    40 1   
     6     4     7 ar  
     7     4    41 1   
     8     5     6 ar  
     9     5    42 1   
    10     6     7 ar  
    11     6    43 1   
    12     7     8 1   
    13     8     9 ar  
    14     8    10 ar  
    15     9    15 ar  
    16     9    44 1   
    17    10    11 ar  
    18    10    45 1   
    19    11    12 1   
    20    11    13 ar  
    21    12    46 1   
    22    13    14 1   
    23    13    15 ar  
    24    14    47 1   
    25    15    16 1   
    26    16    17 2   
    27    16    18 1   
    28    18    19 1   
    29    18    48 1   
    30    19    20 1   
    31    19    49 1   
    32    19    50 1   
    33    20    21 2   
    34    20    51 1   
    35    21    22 1   
    36    21    52 1   
    37    22    23 1   
    38    22    27 1   
    39    22    53 1   
    40    23    24 1   
    41    23    25 1   
    42    23    54 1   
    43    24    55 1   
    44    25    26 1   
    45    25    28 1   
    46    25    56 1   
    47    26    57 1   
    48    27    28 1   
    49    28    29 1   
    50    28    58 1   
    51    29    30 1   
    52    29    31 1   
    53    30    37 2   
    54    30    59 1   
    55    31    32 ar  
    56    31    36 ar  
    57    32    33 ar  
    58    33    34 ar  
    59    33    60 1   
    60    34    35 ar  
    61    35    36 ar  
    62    35    38 1   
    63    36    37 1   
    64    38    39 1   
    65    38    61 1   
    66    39    62 1   
    67    39    63 1   
    68    39    64 1   
@<TRIPOS>SUBSTRUCTURE
     1 542         1 TEMP              0 ****  ****    0 ROOT
