@<TRIPOS>MOLECULE
542
   64    68     1     0     0
SMALL
abcg2


@<TRIPOS>ATOM
      1 F30          0.5910    -5.4560     2.8120 f          1 542      -0.179000
      2 C29          1.2020    -4.5310     2.0550 ca         1 542       0.169000
      3 C26          2.5600    -4.6380     1.8310 ca         1 542      -0.156500
      4 C25          3.1830    -3.6750     1.0500 ca         1 542      -0.082500
      5 C28          0.4540    -3.5000     1.5210 ca         1 542      -0.156500
      6 C27          1.0920    -2.5490     0.7390 ca         1 542      -0.082500
      7 C24          2.4650    -2.6160     0.4930 cp         1 542      -0.045000
      8 C22          3.1370    -1.5930    -0.3310 cp         1 542      -0.048000
      9 C21          2.7570    -0.2640    -0.2710 ca         1 542      -0.060000
     10 C23          4.1760    -1.9500    -1.2000 ca         1 542      -0.142000
     11 C33          4.7990    -1.0140    -1.9980 ca         1 542       0.086100
     12 O34          5.7890    -1.3060    -2.8620 oh         1 542      -0.508100
     13 C31          4.3890     0.3320    -1.9580 ca         1 542       0.202100
     14 O32          5.0000     1.1810    -2.7830 oh         1 542      -0.525100
     15 C20          3.3830     0.7080    -1.0590 ca         1 542      -0.249600
     16 C18          3.0080     2.1450    -1.0080 c          1 542       0.631700
     17 O19          3.3410     2.9080    -1.9260 o          1 542      -0.644100
     18 N17          2.3240     2.5760     0.0550 ns         1 542      -0.486900
     19 C16          1.7830     3.9170     0.1930 c3         1 542       0.129200
     20 C15          0.3070     3.9040    -0.0590 c2         1 542      -0.223200
     21 C14         -0.5990     4.1900     0.8680 c2         1 542      -0.230200
     22 C6          -2.0790     4.1070     0.7040 c5         1 542       0.196500
     23 C4          -2.7540     3.2670     1.7970 c5         1 542       0.092300
     24 O5          -3.0300     4.0690     2.9090 oh         1 542      -0.706000
     25 C2          -3.9990     2.7520     1.0700 c5         1 542       0.102300
     26 O3          -4.9770     3.7480     0.9720 oh         1 542      -0.699000
     27 O13         -2.4460     3.4860    -0.5240 os         1 542      -0.436000
     28 C1          -3.4330     2.5210    -0.3280 c5         1 542       0.321300
     29 N10         -2.8490     1.1870    -0.4500 na         1 542      -0.310300
     30 C9          -1.5340     0.8180    -0.4030 cc         1 542       0.409700
     31 C11         -3.5610     0.0360    -0.6250 ca         1 542       0.121500
     32 N40         -4.8830    -0.1080    -0.7200 nb         1 542      -0.220000
     33 C39         -5.2240    -1.3740    -0.8760 ca         1 542       0.182900
     34 N38         -4.4330    -2.4430    -0.9460 nb         1 542      -0.294000
     35 C35         -3.1100    -2.2830    -0.8500 ca         1 542       0.442900
     36 C12         -2.6160    -0.9750    -0.6780 ca         1 542      -0.097600
     37 N8          -1.3540    -0.4640    -0.5380 nd         1 542      -0.571100
     38 N7          -2.3080    -3.3490    -0.9070 nu         1 542      -0.912100
     39 C36         -2.7820    -4.6940    -1.1240 c3         1 542       0.220100
     40 H26          3.1270    -5.4510     2.2650 ha         1 542       0.133500
     41 H25          4.2520    -3.7500     0.8930 ha         1 542       0.131500
     42 H28         -0.6120    -3.4420     1.7050 ha         1 542       0.133500
     43 H27          0.4960    -1.7570     0.2960 ha         1 542       0.131500
     44 H21          1.9560     0.0140     0.4020 ha         1 542       0.112000
     45 H23          4.4800    -2.9880    -1.2760 ha         1 542       0.118000
     46 HO34         6.0130    -2.2420    -2.8070 ho         1 542       0.460000
     47 HO32         4.5170     2.0390    -2.7000 ho         1 542       0.518000
     48 HN17         2.1520     1.9450     0.8200 hn         1 542       0.320500
     49 H16          2.0050     4.2780     1.1980 h1         1 542       0.070700
     50 H16A         2.2960     4.5710    -0.5110 h1         1 542       0.070700
     51 H15          0.0020     3.5990    -1.0560 ha         1 542       0.200000
     52 H14         -0.2780     4.5140     1.8550 ha         1 542       0.183000
     53 H6          -2.5000     5.1210     0.7340 h1         1 542       0.093700
     54 H4          -2.1150     2.4170     2.0670 h1         1 542       0.057700
     55 HO5         -3.1600     3.5030     3.6770 ho         1 542       0.519000
     56 H2          -4.3940     1.8290     1.5110 h1         1 542       0.080700
     57 HO3         -4.9880     4.2350     1.8060 ho         1 542       0.526000
     58 H1          -4.2040     2.6050    -1.0980 h2         1 542       0.131700
     59 H9          -0.7430     1.5380    -0.2700 h5         1 542       0.072800
     60 H39         -6.2870    -1.5760    -0.9600 h5         1 542       0.048100
     61 HN7         -1.3150    -3.1840    -0.9400 hn         1 542       0.513000
     62 H36         -1.9380    -5.3710    -1.0300 h1         1 542       0.045700
     63 H36A        -3.5300    -4.9730    -0.3840 h1         1 542       0.045700
     64 H36B        -3.2190    -4.8230    -2.1160 h1         1 542       0.045700
@<TRIPOS>BOND
     1     1     2 1   
     2     2     3 ar  
     3     2     5 ar  
     4     3     4 ar  
     5     3    40 1   
     6     4     7 ar  
     7     4    41 1   
     8     5     6 ar  
     9     5    42 1   
    10     6     7 ar  
    11     6    43 1   
    12     7     8 1   
    13     8     9 ar  
    14     8    10 ar  
    15     9    15 ar  
    16     9    44 1   
    17    10    11 ar  
    18    10    45 1   
    19    11    12 1   
    20    11    13 ar  
    21    12    46 1   
    22    13    14 1   
    23    13    15 ar  
    24    14    47 1   
    25    15    16 1   
    26    16    17 2   
    27    16    18 1   
    28    18    19 1   
    29    18    48 1   
    30    19    20 1   
    31    19    49 1   
    32    19    50 1   
    33    20    21 2   
    34    20    51 1   
    35    21    22 1   
    36    21    52 1   
    37    22    23 1   
    38    22    27 1   
    39    22    53 1   
    40    23    24 1   
    41    23    25 1   
    42    23    54 1   
    43    24    55 1   
    44    25    26 1   
    45    25    28 1   
    46    25    56 1   
    47    26    57 1   
    48    27    28 1   
    49    28    29 1   
    50    28    58 1   
    51    29    30 1   
    52    29    31 1   
    53    30    37 2   
    54    30    59 1   
    55    31    32 ar  
    56    31    36 ar  
    57    32    33 ar  
    58    33    34 ar  
    59    33    60 1   
    60    34    35 ar  
    61    35    36 ar  
    62    35    38 1   
    63    36    37 1   
    64    38    39 1   
    65    38    61 1   
    66    39    62 1   
    67    39    63 1   
    68    39    64 1   
@<TRIPOS>SUBSTRUCTURE
     1 542         1 TEMP              0 ****  ****    0 ROOT
