@<TRIPOS>MOLECULE
544
   67    70     1     0     0
SMALL
No Charge or Current Charge


@<TRIPOS>ATOM
      1 N           -2.8910    -3.2540     0.1660 nu         1 544      -0.735200
      2 CA          -3.5780    -2.0730    -0.4490 c3         1 544       0.066500
      3 CB          -3.3880    -0.8180     0.4460 c3         1 544      -0.016100
      4 CG          -1.9300    -0.5320     0.8070 ca         1 544      -0.107300
      5 CD1         -1.3970    -0.9970     2.0250 ca         1 544      -0.061500
      6 CD2         -1.1000     0.1790    -0.0810 ca         1 544      -0.061500
      7 CE1         -0.0400    -0.7970     2.3250 ca         1 544      -0.169500
      8 CE2          0.2570     0.3870     0.2230 ca         1 544      -0.169500
      9 CZ           0.7960    -0.1200     1.4250 ca         1 544       0.128100
     10 OH           2.1310    -0.0060     1.7520 os         1 544      -0.344100
     11 C1A         -2.9410    -4.5710    -0.2430 c2         1 544       0.279800
     12 C1F         -2.0610    -5.4280     0.3050 ce         1 544      -0.552200
     13 C1B         -3.9720    -4.9390    -1.2920 c3         1 544      -0.081900
     14 C1H          0.3590    -5.7960     1.1870 ca         1 544      -0.120600
     15 C1I          0.7180    -6.5750     0.0610 ca         1 544      -0.076000
     16 C1J          1.9700    -7.2140     0.0060 ca         1 544      -0.136000
     17 C1K          2.8780    -7.0840     1.0680 ca         1 544      -0.117000
     18 C1L          2.5370    -6.3090     2.1860 ca         1 544      -0.136000
     19 C1M          1.2890    -5.6650     2.2430 ca         1 544      -0.076000
     20 C1G         -0.9770    -5.0870     1.2760 c          1 544       0.595900
     21 O1G         -1.1390    -4.1670     2.0680 o          1 544      -0.635100
     22 O3F          5.3260    -3.1460     0.6360 os         1 544      -0.260000
     23 C3G          5.3160    -3.0780     1.9990 cc         1 544       0.496500
     24 N3H          5.0380    -1.8790     2.4920 nd         1 544      -0.647000
     25 C3C          4.8390    -1.1030     1.3700 cd         1 544       0.256300
     26 C3D          5.0230    -1.8810     0.2520 cc         1 544       0.105300
     27 C3E          4.9400    -1.5650    -1.2150 c3         1 544      -0.112400
     28 C3I          5.6020    -4.2970     2.7690 ca         1 544      -0.122500
     29 C3N          5.5020    -4.2950     4.1780 ca         1 544      -0.072000
     30 C3M          5.7780    -5.4580     4.9170 ca         1 544      -0.122500
     31 C3L          6.1610    -6.6370     4.2590 ca         1 544      -0.101000
     32 C3K          6.2710    -6.6510     2.8600 ca         1 544      -0.122500
     33 C3J          5.9950    -5.4890     2.1180 ca         1 544      -0.072000
     34 C3A          3.0790     0.6590     0.9010 c3         1 544       0.173600
     35 C3B          4.4880     0.3620     1.4470 c3         1 544      -0.095700
     36 C           -3.1830    -1.7700    -1.9490 c          1 544       0.707000
     37 HN          -2.1940    -3.0780     0.8980 hn         1 544       0.534000
     38 HA1         -4.6560    -2.2800    -0.4640 h1         1 544       0.039700
     39 HB1         -3.8310     0.0510    -0.0570 hc         1 544       0.045200
     40 HB2         -3.9730    -0.9560     1.3630 hc         1 544       0.045200
     41 HD11        -2.0270    -1.5370     2.7290 ha         1 544       0.122500
     42 HD21        -1.5010     0.5540    -1.0200 ha         1 544       0.122500
     43 HE11         0.3700    -1.1860     3.2540 ha         1 544       0.108500
     44 HE21         0.8720     0.9250    -0.4910 ha         1 544       0.108500
     45 H1F1        -2.0430    -6.4500    -0.0600 ha         1 544       0.168000
     46 H1B1        -4.0630    -6.0270    -1.3890 hc         1 544       0.051033
     47 H1B2        -3.6960    -4.5450    -2.2760 hc         1 544       0.051033
     48 H1B3        -4.9660    -4.5550    -1.0330 hc         1 544       0.051033
     49 H1I1         0.0440    -6.6790    -0.7850 ha         1 544       0.125500
     50 H1J1         2.2360    -7.8080    -0.8660 ha         1 544       0.101500
     51 H1K1         3.8450    -7.5810     1.0230 ha         1 544       0.094000
     52 H1L1         3.2380    -6.2060     3.0110 ha         1 544       0.101500
     53 H1M1         1.0440    -5.0670     3.1180 ha         1 544       0.125500
     54 H3E1         3.9090    -1.6640    -1.5740 hc         1 544       0.052700
     55 H3E2         5.2740    -0.5400    -1.4150 hc         1 544       0.052700
     56 H3E3         5.5710    -2.2440    -1.8000 hc         1 544       0.052700
     57 H3N1         5.2060    -3.3900     4.7060 ha         1 544       0.132500
     58 H3M1         5.6940    -5.4450     6.0020 ha         1 544       0.112500
     59 H3L1         6.3740    -7.5380     4.8320 ha         1 544       0.109000
     60 H3K1         6.5700    -7.5630     2.3480 ha         1 544       0.112500
     61 H3J1         6.0860    -5.5240     1.0340 ha         1 544       0.132500
     62 H3A1         2.9000     1.7420     0.8960 h1         1 544       0.033200
     63 H3A2         3.0120     0.2890    -0.1300 h1         1 544       0.033200
     64 H3B1         4.5560     0.7220     2.4810 hc         1 544       0.054200
     65 H3B2         5.2170     0.9410     0.8690 hc         1 544       0.054200
     66 O2          -2.0460    -2.0120    -2.3400 o          1 544      -0.710000
     67 O1          -4.0690    -1.3820    -2.7010 o          1 544      -0.710000
@<TRIPOS>BOND
     1     1     2 1   
     2     1    11 1   
     3     1    37 1   
     4     2     3 1   
     5     2    36 1   
     6     2    38 1   
     7     3     4 1   
     8     3    39 1   
     9     3    40 1   
    10     4     5 ar  
    11     4     6 ar  
    12     5     7 ar  
    13     5    41 1   
    14     6     8 ar  
    15     6    42 1   
    16     7     9 ar  
    17     7    43 1   
    18     8     9 ar  
    19     8    44 1   
    20     9    10 1   
    21    10    34 1   
    22    11    12 2   
    23    11    13 1   
    24    12    20 1   
    25    12    45 1   
    26    13    46 1   
    27    13    47 1   
    28    13    48 1   
    29    14    15 ar  
    30    14    19 ar  
    31    14    20 1   
    32    15    16 ar  
    33    15    49 1   
    34    16    17 ar  
    35    16    50 1   
    36    17    18 ar  
    37    17    51 1   
    38    18    19 ar  
    39    18    52 1   
    40    19    53 1   
    41    20    21 2   
    42    22    23 1   
    43    22    26 1   
    44    23    24 2   
    45    23    28 1   
    46    24    25 1   
    47    25    26 2   
    48    25    35 1   
    49    26    27 1   
    50    27    54 1   
    51    27    55 1   
    52    27    56 1   
    53    28    29 ar  
    54    28    33 ar  
    55    29    30 ar  
    56    29    57 1   
    57    30    31 ar  
    58    30    58 1   
    59    31    32 ar  
    60    31    59 1   
    61    32    33 ar  
    62    32    60 1   
    63    33    61 1   
    64    34    35 1   
    65    34    62 1   
    66    34    63 1   
    67    35    64 1   
    68    35    65 1   
    69    36    66 1   
    70    36    67 1   
@<TRIPOS>SUBSTRUCTURE
     1 544         1 TEMP              0 ****  ****    0 ROOT
