@<TRIPOS>MOLECULE
544
   67    70     1     0     0
SMALL
abcg2


@<TRIPOS>ATOM
      1 N           -2.5660    -3.2240     0.1490 nu         1 544      -0.735200
      2 CA          -3.4690    -2.1390    -0.1440 c3         1 544       0.066500
      3 CB          -3.3140    -1.0400     0.9210 c3         1 544      -0.016100
      4 CG          -1.8830    -0.6310     1.1430 ca         1 544      -0.107300
      5 CD1         -1.1720    -1.1160     2.2400 ca         1 544      -0.061500
      6 CD2         -1.1970     0.1700     0.2360 ca         1 544      -0.061500
      7 CE1          0.1690    -0.8360     2.4170 ca         1 544      -0.169500
      8 CE2          0.1520     0.4660     0.3970 ca         1 544      -0.169500
      9 CZ           0.8480    -0.0530     1.4860 ca         1 544       0.128100
     10 OH           2.1590     0.1500     1.7240 os         1 544      -0.344100
     11 C1A         -2.7260    -4.5000    -0.1700 c2         1 544       0.279800
     12 C1F         -1.7060    -5.4360    -0.0220 ce         1 544      -0.552200
     13 C1B         -4.0600    -4.9510    -0.6770 c3         1 544      -0.081900
     14 C1H          0.6330    -6.1880     0.5380 ca         1 544      -0.120600
     15 C1I          0.5150    -7.4300    -0.0850 ca         1 544      -0.076000
     16 C1J          1.5110    -8.3880     0.0510 ca         1 544      -0.136000
     17 C1K          2.6380    -8.1210     0.8180 ca         1 544      -0.117000
     18 C1L          2.7670    -6.8860     1.4410 ca         1 544      -0.136000
     19 C1M          1.7770    -5.9280     1.2960 ca         1 544      -0.076000
     20 C1G         -0.3980    -5.1040     0.4200 c          1 544       0.595900
     21 O1G         -0.0540    -3.9510     0.7340 o          1 544      -0.635100
     22 O3F          5.7630    -2.7240     0.7730 os         1 544      -0.260000
     23 C3G          5.1580    -2.7380     1.9690 cc         1 544       0.496500
     24 N3H          4.6170    -1.6090     2.2770 nd         1 544      -0.647000
     25 C3C          4.8770    -0.7760     1.2080 cd         1 544       0.256300
     26 C3D          5.5870    -1.4670     0.2830 cc         1 544       0.105300
     27 C3E          6.1530    -1.1440    -1.0430 c3         1 544      -0.112400
     28 C3I          5.1880    -3.9610     2.7590 ca         1 544      -0.122500
     29 C3N          4.3380    -4.0790     3.8600 ca         1 544      -0.072000
     30 C3M          4.3640    -5.2200     4.6430 ca         1 544      -0.122500
     31 C3L          5.2400    -6.2570     4.3410 ca         1 544      -0.101000
     32 C3K          6.0840    -6.1460     3.2440 ca         1 544      -0.122500
     33 C3J          6.0580    -5.0080     2.4510 ca         1 544      -0.072000
     34 C3A          2.9540     0.7770     0.7400 c3         1 544       0.173600
     35 C3B          4.4090     0.6370     1.1540 c3         1 544      -0.095700
     36 C           -3.3030    -1.6020    -1.5980 c          1 544       0.707000
     37 HN          -1.6150    -2.9860     0.4230 hn         1 544       0.534000
     38 HA1         -4.4970    -2.5060    -0.0690 h1         1 544       0.039700
     39 HB1         -3.9200    -0.1910     0.6070 hc         1 544       0.045200
     40 HB2         -3.7320    -1.4010     1.8630 hc         1 544       0.045200
     41 HD11        -1.6790    -1.7380     2.9690 ha         1 544       0.122500
     42 HD21        -1.7220     0.5750    -0.6210 ha         1 544       0.122500
     43 HE11         0.7070    -1.2400     3.2660 ha         1 544       0.108500
     44 HE21         0.6390     1.0970    -0.3350 ha         1 544       0.108500
     45 H1F1        -1.9540    -6.4610    -0.2520 ha         1 544       0.168000
     46 H1B1        -4.0600    -6.0220    -0.8610 hc         1 544       0.051033
     47 H1B2        -4.3100    -4.4430    -1.6090 hc         1 544       0.051033
     48 H1B3        -4.8510    -4.7280     0.0410 hc         1 544       0.051033
     49 H1I1        -0.3460    -7.6600    -0.6980 ha         1 544       0.125500
     50 H1J1         1.4070    -9.3430    -0.4470 ha         1 544       0.101500
     51 H1K1         3.4110    -8.8700     0.9270 ha         1 544       0.094000
     52 H1L1         3.6400    -6.6660     2.0410 ha         1 544       0.101500
     53 H1M1         1.8860    -4.9660     1.7790 ha         1 544       0.125500
     54 H3E1         6.0110    -0.0870    -1.2580 hc         1 544       0.052700
     55 H3E2         7.2230    -1.3520    -1.0870 hc         1 544       0.052700
     56 H3E3         5.6700    -1.7130    -1.8400 hc         1 544       0.052700
     57 H3N1         3.6550    -3.2730     4.0960 ha         1 544       0.132500
     58 H3M1         3.6970    -5.3020     5.4920 ha         1 544       0.112500
     59 H3L1         5.2600    -7.1470     4.9550 ha         1 544       0.109000
     60 H3K1         6.7660    -6.9500     3.0010 ha         1 544       0.112500
     61 H3J1         6.7270    -4.9380     1.6040 ha         1 544       0.132500
     62 H3A1         2.6940     1.8380     0.6480 h1         1 544       0.033200
     63 H3A2         2.7990     0.3120    -0.2400 h1         1 544       0.033200
     64 H3B1         4.5620     1.1150     2.1240 hc         1 544       0.054200
     65 H3B2         5.0070     1.2000     0.4350 hc         1 544       0.054200
     66 O2          -2.6070    -2.2720    -2.3770 o          1 544      -0.710000
     67 O1          -3.9300    -0.5540    -1.8510 o          1 544      -0.710000
@<TRIPOS>BOND
     1     1     2 1   
     2     1    11 1   
     3     1    37 1   
     4     2     3 1   
     5     2    36 1   
     6     2    38 1   
     7     3     4 1   
     8     3    39 1   
     9     3    40 1   
    10     4     5 ar  
    11     4     6 ar  
    12     5     7 ar  
    13     5    41 1   
    14     6     8 ar  
    15     6    42 1   
    16     7     9 ar  
    17     7    43 1   
    18     8     9 ar  
    19     8    44 1   
    20     9    10 1   
    21    10    34 1   
    22    11    12 2   
    23    11    13 1   
    24    12    20 1   
    25    12    45 1   
    26    13    46 1   
    27    13    47 1   
    28    13    48 1   
    29    14    15 ar  
    30    14    19 ar  
    31    14    20 1   
    32    15    16 ar  
    33    15    49 1   
    34    16    17 ar  
    35    16    50 1   
    36    17    18 ar  
    37    17    51 1   
    38    18    19 ar  
    39    18    52 1   
    40    19    53 1   
    41    20    21 2   
    42    22    23 1   
    43    22    26 1   
    44    23    24 2   
    45    23    28 1   
    46    24    25 1   
    47    25    26 2   
    48    25    35 1   
    49    26    27 1   
    50    27    54 1   
    51    27    55 1   
    52    27    56 1   
    53    28    29 ar  
    54    28    33 ar  
    55    29    30 ar  
    56    29    57 1   
    57    30    31 ar  
    58    30    58 1   
    59    31    32 ar  
    60    31    59 1   
    61    32    33 ar  
    62    32    60 1   
    63    33    61 1   
    64    34    35 1   
    65    34    62 1   
    66    34    63 1   
    67    35    64 1   
    68    35    65 1   
    69    36    66 1   
    70    36    67 1   
@<TRIPOS>SUBSTRUCTURE
     1 544         1 TEMP              0 ****  ****    0 ROOT
