@<TRIPOS>MOLECULE
545
   66    67     1     0     0
SMALL
abcg2


@<TRIPOS>ATOM
      1 C8          -0.9330    -1.2330    -5.8590 ca         1 545      -0.068500
      2 C7          -0.9740    -0.7750    -7.1680 ca         1 545      -0.173000
      3 C12         -1.1980     0.5740    -7.4250 ca         1 545       0.142100
      4 C11         -1.3850     1.4490    -6.3570 ca         1 545      -0.173000
      5 C10         -1.3420     0.9730    -5.0560 ca         1 545      -0.068500
      6 C9          -1.1160    -0.3740    -4.7790 ca         1 545      -0.127300
      7 C14         -1.0210    -0.8590    -3.3620 c3         1 545      -0.069100
      8 C15          0.3690    -0.5580    -2.7480 c3         1 545       0.096500
      9 C17          0.3440    -1.0270    -1.3040 c          1 545       0.615100
     10 N19         -0.1420    -0.1400    -0.4240 ns         1 545      -0.480900
     11 C20         -0.4500    -0.4640     0.9410 c3         1 545       0.064700
     12 C21         -1.8580     0.0150     1.2670 c          1 545       0.596100
     13 O23         -2.1700    -0.2610     2.5200 os         1 545      -0.459100
     14 C24         -3.4750     0.1020     2.9970 c3         1 545       0.165600
     15 C25         -3.5400    -0.2490     4.4670 c3         1 545      -0.085400
     16 C26         -4.8970     0.1000     5.0670 c3         1 545      -0.074400
     17 C27         -4.9790    -0.2450     6.5470 c3         1 545      -0.089100
     18 O18          0.6920    -2.1620    -0.9930 o          1 545      -0.628100
     19 N16          1.4900    -1.1640    -3.4280 n8         1 545      -0.982200
     20 O22         -2.6110     0.5040     0.4660 o          1 545      -0.477000
     21 C6           0.6260     0.0080     1.9350 c6         1 545       0.096500
     22 N5           0.8180     1.4450     1.8350 n3         1 545      -0.437100
     23 C4           1.8050     1.9420     2.7750 c6         1 545       0.082800
     24 C3           3.1640     1.2930     2.5510 c6         1 545       0.147300
     25 C2           3.0670    -0.2470     2.6030 c6         1 545       0.199000
     26 C1           1.9700    -0.6850     1.6250 c6         1 545       0.186300
     27 O28         -0.3880     2.1190     2.0400 oh         1 545      -0.441300
     28 O32          3.7040     1.6390     1.2980 oh         1 545      -0.689000
     29 O29          4.2620    -0.8310     2.1500 oh         1 545      -0.621000
     30 C30          2.7890    -0.7300     4.0320 c3         1 545       0.121600
     31 O31          3.9250    -0.4170     4.8130 oh         1 545      -0.740000
     32 O64          1.8330    -2.0790     1.6590 oh         1 545      -0.725000
     33 O13         -1.2270     0.9780    -8.7120 oh         1 545      -0.533100
     34 H8          -0.7640    -2.2890    -5.6820 ha         1 545       0.114000
     35 H7          -0.8330    -1.4640    -7.9920 ha         1 545       0.122500
     36 H11         -1.5660     2.5030    -6.5380 ha         1 545       0.122500
     37 H10         -1.4910     1.6720    -4.2410 ha         1 545       0.114000
     38 H141        -1.1970    -1.9380    -3.3200 hc         1 545       0.062700
     39 H142        -1.7960    -0.3870    -2.7520 hc         1 545       0.062700
     40 H15          0.5130     0.5270    -2.7640 h1         1 545       0.073700
     41 H19         -0.3640     0.7890    -0.7480 hn         1 545       0.344500
     42 H20         -0.5030    -1.5530     1.0290 h1         1 545       0.105700
     43 H241        -4.2370    -0.4390     2.4310 h1         1 545       0.051700
     44 H242        -3.6380     1.1720     2.8450 h1         1 545       0.051700
     45 H251        -2.7520     0.2870     5.0050 hc         1 545       0.051200
     46 H252        -3.3460    -1.3180     4.5980 hc         1 545       0.051200
     47 H261        -5.6850    -0.4300     4.5240 hc         1 545       0.041700
     48 H262        -5.0950     1.1670     4.9280 hc         1 545       0.041700
     49 H271        -5.9570     0.0030     6.9590 hc         1 545       0.034700
     50 H272        -4.8100    -1.3110     6.7130 hc         1 545       0.034700
     51 H273        -4.2290     0.3000     7.1220 hc         1 545       0.034700
     52 H161         1.4000    -2.1730    -3.4120 hn         1 545       0.411000
     53 H162         1.4770    -0.8930    -4.4030 hn         1 545       0.411000
     54 H6           0.2910    -0.2950     2.9400 h1         1 545       0.056700
     55 H41          1.4880     1.7870     3.8200 h1         1 545       0.051700
     56 H42          1.8960     3.0230     2.6390 h1         1 545       0.051700
     57 H3           3.8190     1.6400     3.3610 h1         1 545       0.054700
     58 H1           2.2920    -0.3480     0.6320 h1         1 545       0.090700
     59 H28         -0.6330     2.0240     2.9770 ho         1 545       0.413000
     60 H32          3.6760     2.5980     1.2140 ho         1 545       0.503000
     61 H29          4.9120    -0.7490     2.8590 ho         1 545       0.457000
     62 H301         1.8910    -0.2620     4.4460 h1         1 545       0.043200
     63 H302         2.6090    -1.8090     4.0110 h1         1 545       0.043200
     64 H31          3.9310    -0.9880     5.5860 ho         1 545       0.514000
     65 H64          1.5040    -2.3570     0.7900 ho         1 545       0.545000
     66 H13         -1.3620     1.9310    -8.7630 ho         1 545       0.466000
@<TRIPOS>BOND
     1     1     2 ar  
     2     1     6 ar  
     3     1    34 1   
     4     2     3 ar  
     5     2    35 1   
     6     3     4 ar  
     7     3    33 1   
     8     4     5 ar  
     9     4    36 1   
    10     5     6 ar  
    11     5    37 1   
    12     6     7 1   
    13     7     8 1   
    14     7    38 1   
    15     7    39 1   
    16     8     9 1   
    17     8    19 1   
    18     8    40 1   
    19     9    10 1   
    20     9    18 2   
    21    10    11 1   
    22    10    41 1   
    23    11    12 1   
    24    11    21 1   
    25    11    42 1   
    26    12    13 1   
    27    12    20 2   
    28    13    14 1   
    29    14    15 1   
    30    14    43 1   
    31    14    44 1   
    32    15    16 1   
    33    15    45 1   
    34    15    46 1   
    35    16    17 1   
    36    16    47 1   
    37    16    48 1   
    38    17    49 1   
    39    17    50 1   
    40    17    51 1   
    41    19    52 1   
    42    19    53 1   
    43    21    22 1   
    44    21    26 1   
    45    21    54 1   
    46    22    23 1   
    47    22    27 1   
    48    23    24 1   
    49    23    55 1   
    50    23    56 1   
    51    24    25 1   
    52    24    28 1   
    53    24    57 1   
    54    25    26 1   
    55    25    29 1   
    56    25    30 1   
    57    26    32 1   
    58    26    58 1   
    59    27    59 1   
    60    28    60 1   
    61    29    61 1   
    62    30    31 1   
    63    30    62 1   
    64    30    63 1   
    65    31    64 1   
    66    32    65 1   
    67    33    66 1   
@<TRIPOS>SUBSTRUCTURE
     1 545         1 TEMP              0 ****  ****    0 ROOT
