@<TRIPOS>MOLECULE
545
   66    67     1     0     0
SMALL
No Charge or Current Charge


@<TRIPOS>ATOM
      1 C8          -0.2330    -1.3590    -6.2050 ca         1 545      -0.068500
      2 C7          -0.2630    -0.8840    -7.5280 ca         1 545      -0.173000
      3 C12         -0.8890     0.3360    -7.8240 ca         1 545       0.142100
      4 C11         -1.4880     1.0850    -6.7990 ca         1 545      -0.173000
      5 C10         -1.4590     0.6120    -5.4740 ca         1 545      -0.068500
      6 C9          -0.8280    -0.6110    -5.1690 ca         1 545      -0.127300
      7 C14         -0.8000    -1.1220    -3.7300 c3         1 545      -0.069100
      8 C15          0.1100    -0.2850    -2.7930 c3         1 545       0.096500
      9 C17          0.0190    -0.8040    -1.3130 c          1 545       0.615100
     10 N19         -0.4970     0.0860    -0.3940 ns         1 545      -0.480900
     11 C20         -0.7020    -0.2090     1.0490 c3         1 545       0.064700
     12 C21         -2.0560     0.3630     1.5400 c          1 545       0.596100
     13 O23         -2.3540    -0.0620     2.8110 os         1 545      -0.459100
     14 C24         -3.5860     0.3850     3.4010 c3         1 545       0.165600
     15 C25         -3.6650    -0.2190     4.8160 c3         1 545      -0.085400
     16 C26         -4.9490     0.1840     5.5740 c3         1 545      -0.074400
     17 C27         -5.0290    -0.4190     6.9890 c3         1 545      -0.089100
     18 O18          0.4000    -1.9190    -0.9680 o          1 545      -0.628100
     19 N16          1.4970    -0.2030    -3.3630 n8         1 545      -0.982200
     20 O22         -2.7880     1.0820     0.8680 o          1 545      -0.477000
     21 C6           0.5440     0.1450     1.9550 c6         1 545       0.096500
     22 N5           0.9000     1.6100     1.9750 n3         1 545      -0.437100
     23 C4           2.0420     1.9240     2.8800 c6         1 545       0.082800
     24 C3           3.3220     1.1620     2.4480 c6         1 545       0.147300
     25 C2           3.0580    -0.3960     2.4420 c6         1 545       0.199000
     26 C1           1.8090    -0.6930     1.5260 c6         1 545       0.186300
     27 O28         -0.2430     2.3820     2.4860 oh         1 545      -0.441300
     28 O32          3.7200     1.6560     1.1480 oh         1 545      -0.689000
     29 O29          4.2300    -1.0780     1.9500 oh         1 545      -0.621000
     30 C30          2.8590    -0.9510     3.9010 c3         1 545       0.121600
     31 O31          4.0730    -0.8510     4.6780 oh         1 545      -0.740000
     32 O64          1.5020    -2.1070     1.4560 oh         1 545      -0.725000
     33 O13         -0.9140     0.7860    -9.1100 oh         1 545      -0.533100
     34 H8           0.2550    -2.3070    -5.9870 ha         1 545       0.114000
     35 H7           0.1980    -1.4630    -8.3230 ha         1 545       0.122500
     36 H11         -1.9770     2.0300    -7.0190 ha         1 545       0.122500
     37 H10         -1.9280     1.1970    -4.6860 ha         1 545       0.114000
     38 H141        -0.4770    -2.1700    -3.7010 hc         1 545       0.062700
     39 H142        -1.8190    -1.1160    -3.3240 hc         1 545       0.062700
     40 H15         -0.2910     0.7380    -2.7880 h1         1 545       0.073700
     41 H19         -0.7760     0.9980    -0.7390 hn         1 545       0.344500
     42 H20         -0.8610    -1.2900     1.1480 h1         1 545       0.105700
     43 H241        -4.4480     0.0490     2.8080 h1         1 545       0.051700
     44 H242        -3.6140     1.4810     3.4660 h1         1 545       0.051700
     45 H251        -2.7890     0.1050     5.3920 hc         1 545       0.051200
     46 H252        -3.6170    -1.3120     4.7410 hc         1 545       0.051200
     47 H261        -5.8270    -0.1380     4.9990 hc         1 545       0.041700
     48 H262        -5.0000     1.2770     5.6490 hc         1 545       0.041700
     49 H271        -5.9550    -0.1060     7.4870 hc         1 545       0.034700
     50 H272        -5.0160    -1.5150     6.9460 hc         1 545       0.034700
     51 H273        -4.1820    -0.0870     7.6020 hc         1 545       0.034700
     52 H161         1.9190    -1.1400    -3.3480 hn         1 545       0.411000
     53 H162         1.4220     0.0050    -4.3660 hn         1 545       0.411000
     54 H6           0.2790    -0.1680     2.9760 h1         1 545       0.056700
     55 H41          1.7970     1.6730     3.9220 h1         1 545       0.051700
     56 H42          2.2510     3.0040     2.8630 h1         1 545       0.051700
     57 H3           4.1140     1.3810     3.1790 h1         1 545       0.054700
     58 H1           2.0910    -0.3470     0.5200 h1         1 545       0.090700
     59 H28         -0.3470     2.1030     3.4240 ho         1 545       0.413000
     60 H32          2.8940     1.9900     0.7280 ho         1 545       0.503000
     61 H29          4.7550    -1.2300     2.7700 ho         1 545       0.457000
     62 H301         2.0420    -0.4120     4.3970 h1         1 545       0.043200
     63 H302         2.5490    -2.0030     3.8370 h1         1 545       0.043200
     64 H31          3.8740    -1.1940     5.5830 ho         1 545       0.514000
     65 H64          1.1210    -2.2410     0.5400 ho         1 545       0.545000
     66 H13         -1.3890     1.6440    -9.1290 ho         1 545       0.466000
@<TRIPOS>BOND
     1     1     2 ar  
     2     1     6 ar  
     3     1    34 1   
     4     2     3 ar  
     5     2    35 1   
     6     3     4 ar  
     7     3    33 1   
     8     4     5 ar  
     9     4    36 1   
    10     5     6 ar  
    11     5    37 1   
    12     6     7 1   
    13     7     8 1   
    14     7    38 1   
    15     7    39 1   
    16     8     9 1   
    17     8    19 1   
    18     8    40 1   
    19     9    10 1   
    20     9    18 2   
    21    10    11 1   
    22    10    41 1   
    23    11    12 1   
    24    11    21 1   
    25    11    42 1   
    26    12    13 1   
    27    12    20 2   
    28    13    14 1   
    29    14    15 1   
    30    14    43 1   
    31    14    44 1   
    32    15    16 1   
    33    15    45 1   
    34    15    46 1   
    35    16    17 1   
    36    16    47 1   
    37    16    48 1   
    38    17    49 1   
    39    17    50 1   
    40    17    51 1   
    41    19    52 1   
    42    19    53 1   
    43    21    22 1   
    44    21    26 1   
    45    21    54 1   
    46    22    23 1   
    47    22    27 1   
    48    23    24 1   
    49    23    55 1   
    50    23    56 1   
    51    24    25 1   
    52    24    28 1   
    53    24    57 1   
    54    25    26 1   
    55    25    29 1   
    56    25    30 1   
    57    26    32 1   
    58    26    58 1   
    59    27    59 1   
    60    28    60 1   
    61    29    61 1   
    62    30    31 1   
    63    30    62 1   
    64    30    63 1   
    65    31    64 1   
    66    32    65 1   
    67    33    66 1   
@<TRIPOS>SUBSTRUCTURE
     1 545         1 TEMP              0 ****  ****    0 ROOT
