@<TRIPOS>MOLECULE
546
   41    44     1     0     0
SMALL
bcc


@<TRIPOS>ATOM
      1 C1           1.5150     2.2650     1.9510 c3         1 546      -0.057800
      2 N1           3.2390     1.0130    -1.7860 nb         1 546      -0.673000
      3 O1           2.0840    -3.0390     0.5220 os         1 546      -0.426100
      4 C2           2.1110     1.8270     0.6510 ca         1 546       0.004700
      5 N2          -0.8740     2.5290    -0.4410 nc         1 546      -0.563300
      6 C3           3.4860     1.8190     0.4480 ca         1 546      -0.261300
      7 N3          -0.9590     0.3590    -0.1550 na         1 546      -0.159000
      8 C4           3.9980     1.4110    -0.7720 ca         1 546       0.406200
      9 N4           0.5790    -1.3600     0.1810 nb         1 546      -0.773000
     10 C5           1.9280     1.0180    -1.5980 ca         1 546       0.438200
     11 N5          -3.0870    -1.4040     0.1200 nc         1 546      -0.661000
     12 C6           1.3150     1.4090    -0.4150 ca         1 546      -0.200200
     13 C7          -0.1530     1.4360    -0.3270 cd         1 546       0.440400
     14 C8          -2.1790     2.1810    -0.3530 cc         1 546       0.076400
     15 C9          -2.2730     0.8140    -0.1770 cd         1 546      -0.229600
     16 C10         -0.6810    -0.9790     0.0770 ca         1 546       0.473500
     17 C11         -1.7810    -1.8270     0.1960 ca         1 546       0.229300
     18 C12         -1.4860    -3.1810     0.4180 ca         1 546      -0.089300
     19 C13         -0.1860    -3.6000     0.5190 ca         1 546      -0.271300
     20 C14          0.8260    -2.6300     0.4000 ca         1 546       0.683600
     21 C15          3.1110    -2.0620     0.4330 c3         1 546       0.129700
     22 C16         -3.3280    -0.1460    -0.0440 cd         1 546       0.491600
     23 C17         -4.7530     0.3030    -0.0920 c3         1 546      -0.147400
     24 C18         -3.2480     3.2100    -0.4780 c3         1 546      -0.017900
     25 H1           1.0010     3.2200     1.8410 hc         1 546       0.053367
     26 H1A          0.7790     1.5480     2.3150 hc         1 546       0.053367
     27 H1B          2.2780     2.3840     2.7170 hc         1 546       0.053367
     28 H3           4.1610     2.1280     1.2360 ha         1 546       0.141000
     29 H4           5.0690     1.4030    -0.9350 h4         1 546       0.018100
     30 H5           1.3190     0.6910    -2.4350 h4         1 546       0.024100
     31 H12         -2.3020    -3.8840     0.5120 ha         1 546       0.161000
     32 H13          0.0640    -4.6360     0.6970 ha         1 546       0.165000
     33 H15          3.1250    -1.5790    -0.5440 h1         1 546       0.052700
     34 H15A         3.0010    -1.2900     1.1960 h1         1 546       0.052700
     35 H15B         4.0450    -2.5960     0.5870 h1         1 546       0.052700
     36 H17         -5.4110    -0.5600    -0.0460 hc         1 546       0.059367
     37 H17A        -4.9850     0.9550     0.7520 hc         1 546       0.059367
     38 H17B        -4.9690     0.8600    -1.0040 hc         1 546       0.059367
     39 H18         -3.5310     3.3680    -1.5210 hc         1 546       0.049700
     40 H18A        -4.1490     2.9430     0.0690 hc         1 546       0.049700
     41 H18B        -2.8890     4.1640    -0.0930 hc         1 546       0.049700
@<TRIPOS>BOND
     1     1     4 1   
     2     1    25 1   
     3     1    26 1   
     4     1    27 1   
     5     2     8 ar  
     6     2    10 ar  
     7     3    20 1   
     8     3    21 1   
     9     4     6 ar  
    10     4    12 ar  
    11     5    13 2   
    12     5    14 1   
    13     6     8 ar  
    14     6    28 1   
    15     7    13 1   
    16     7    15 1   
    17     7    16 1   
    18     8    29 1   
    19     9    16 ar  
    20     9    20 ar  
    21    10    12 ar  
    22    10    30 1   
    23    11    17 1   
    24    11    22 2   
    25    12    13 1   
    26    14    15 2   
    27    14    24 1   
    28    15    22 1   
    29    16    17 ar  
    30    17    18 ar  
    31    18    19 ar  
    32    18    31 1   
    33    19    20 ar  
    34    19    32 1   
    35    21    33 1   
    36    21    34 1   
    37    21    35 1   
    38    22    23 1   
    39    23    36 1   
    40    23    37 1   
    41    23    38 1   
    42    24    39 1   
    43    24    40 1   
    44    24    41 1   
@<TRIPOS>SUBSTRUCTURE
     1 546         1 TEMP              0 ****  ****    0 ROOT
