@<TRIPOS>MOLECULE
546
   41    44     1     0     0
SMALL
No Charge or Current Charge


@<TRIPOS>ATOM
      1 C1           1.5750     2.8300     1.8160 c3         1 546      -0.057800
      2 N1           3.3340     0.7890    -1.6090 nb         1 546      -0.673000
      3 O1           2.0210    -3.2220     0.6000 os         1 546      -0.449300
      4 C2           2.1590     2.1170     0.6000 ca         1 546       0.004700
      5 N2          -0.8500     2.4550    -0.1160 nc         1 546      -0.563300
      6 C3           3.5490     2.1350     0.3860 ca         1 546      -0.178000
      7 N3          -0.9650     0.3080    -0.5610 na         1 546      -0.108300
      8 C4           4.0920     1.4640    -0.7200 ca         1 546       0.340900
      9 N4           0.5590    -1.4600     0.0680 nb         1 546      -0.773000
     10 C5           1.9960     0.7640    -1.4040 ca         1 546       0.372900
     11 N5          -3.2170    -1.4860    -0.2510 nc         1 546      -0.661000
     12 C6           1.3600     1.3990    -0.3210 ca         1 546      -0.134900
     13 C7          -0.1110     1.3500    -0.2390 cd         1 546       0.440400
     14 C8          -2.1710     2.0820    -0.1940 cc         1 546       0.076400
     15 C9          -2.2510     0.7220    -0.3660 cd         1 546      -0.215000
     16 C10         -0.6990    -0.9990    -0.1590 ca         1 546       0.473500
     17 C11         -1.8500    -1.8690    -0.0920 ca         1 546       0.164000
     18 C12         -1.6120    -3.2270     0.1870 ca         1 546      -0.006000
     19 C13         -0.3030    -3.6720     0.4180 ca         1 546      -0.188000
     20 C14          0.7500    -2.7590     0.3590 ca         1 546       0.618300
     21 C15          3.1620    -2.3460     0.5110 c3         1 546       0.152900
     22 C16         -3.3870    -0.1590    -0.3170 cd         1 546       0.426300
     23 C17         -4.8160     0.3090    -0.2540 c3         1 546      -0.147400
     24 C18         -3.2570     3.1050     0.0150 c3         1 546      -0.017900
     25 H1           1.1060     3.7770     1.5280 hc         1 546       0.053367
     26 H1A          0.8180     2.2130     2.3150 hc         1 546       0.053367
     27 H1B          2.3480     3.0570     2.5590 hc         1 546       0.053367
     28 H3           4.2110     2.6620     1.0670 ha         1 546       0.123000
     29 H4           5.1660     1.4700    -0.9010 h4         1 546       0.018100
     30 H5           1.4130     0.2250    -2.1500 h4         1 546       0.024100
     31 H12         -2.4430    -3.9250     0.2440 ha         1 546       0.143000
     32 H13         -0.1010    -4.7130     0.6480 ha         1 546       0.147000
     33 H15          3.2640    -1.9390    -0.5030 h1         1 546       0.052700
     34 H15A         3.0700    -1.5070     1.2140 h1         1 546       0.052700
     35 H15B         4.0830    -2.8910     0.7520 h1         1 546       0.052700
     36 H17         -5.5230    -0.5230    -0.3520 hc         1 546       0.059367
     37 H17A        -5.0230     0.8050     0.7000 hc         1 546       0.059367
     38 H17B        -5.0320     1.0130    -1.0660 hc         1 546       0.059367
     39 H18         -3.9460     3.1260    -0.8370 hc         1 546       0.049700
     40 H18A        -3.8320     2.8890     0.9220 hc         1 546       0.049700
     41 H18B        -2.8380     4.1130     0.1230 hc         1 546       0.049700
@<TRIPOS>BOND
     1     1     4 1   
     2     1    25 1   
     3     1    26 1   
     4     1    27 1   
     5     2     8 ar  
     6     2    10 ar  
     7     3    20 1   
     8     3    21 1   
     9     4     6 ar  
    10     4    12 ar  
    11     5    13 2   
    12     5    14 1   
    13     6     8 ar  
    14     6    28 1   
    15     7    13 1   
    16     7    15 1   
    17     7    16 1   
    18     8    29 1   
    19     9    16 ar  
    20     9    20 ar  
    21    10    12 ar  
    22    10    30 1   
    23    11    17 1   
    24    11    22 2   
    25    12    13 1   
    26    14    15 2   
    27    14    24 1   
    28    15    22 1   
    29    16    17 ar  
    30    17    18 ar  
    31    18    19 ar  
    32    18    31 1   
    33    19    20 ar  
    34    19    32 1   
    35    21    33 1   
    36    21    34 1   
    37    21    35 1   
    38    22    23 1   
    39    23    36 1   
    40    23    37 1   
    41    23    38 1   
    42    24    39 1   
    43    24    40 1   
    44    24    41 1   
@<TRIPOS>SUBSTRUCTURE
     1 546         1 TEMP              0 ****  ****    0 ROOT
