@<TRIPOS>MOLECULE
547
   56    60     1     0     0
SMALL
No Charge or Current Charge


@<TRIPOS>ATOM
      1 C1           2.6790    -4.6640     0.4320 ca         1 547       0.401900
      2 N2           2.2160    -5.9090     0.1890 nb         1 547      -0.695000
      3 C3           1.6170    -6.5340     1.2160 ca         1 547       0.545300
      4 C4           1.4410    -5.9840     2.4630 ca         1 547      -0.235800
      5 C5           1.9680    -4.7200     2.7400 ca         1 547       0.430000
      6 C6           2.5890    -4.0440     1.6870 ca         1 547      -0.293000
      7 O9           1.1560    -7.8290     1.1300 os         1 547      -0.281400
      8 C10          0.6800    -8.1020     2.4050 cc         1 547       0.095900
      9 C11          0.7550    -6.9980     3.2380 cd         1 547      -0.061400
     10 C12          0.4380    -6.9300     4.6800 ca         1 547      -0.030800
     11 C13         -0.2060    -5.7980     5.2220 ca         1 547      -0.103500
     12 C14         -0.5210    -5.7390     6.5900 ca         1 547      -0.115000
     13 C15         -0.2090    -6.8180     7.4310 ca         1 547      -0.109000
     14 C16          0.4080    -7.9620     6.8990 ca         1 547      -0.115000
     15 C17          0.7220    -8.0200     5.5300 ca         1 547      -0.103500
     16 C23          0.0410    -9.3820     2.7120 ca         1 547      -0.037800
     17 C24         -1.1710    -9.4410     3.4320 ca         1 547      -0.081500
     18 C25         -1.7750   -10.6790     3.7100 ca         1 547      -0.117000
     19 C26         -1.1780   -11.8700     3.2620 ca         1 547      -0.098000
     20 C27          0.0210   -11.8190     2.5320 ca         1 547      -0.117000
     21 C28          0.6250   -10.5800     2.2550 ca         1 547      -0.081500
     22 N34          1.9600    -4.1850     4.0180 nu         1 547      -0.966200
     23 C35          1.9140    -2.7510     4.3710 c3         1 547       0.224800
     24 C36          1.7700    -2.5360     5.9060 c3         1 547       0.152800
     25 N39          1.6120    -1.1220     6.3490 n3         1 547      -0.721600
     26 C42          1.2830    -1.0220     7.8070 c6         1 547       0.164800
     27 C43          1.0710     0.4570     8.2730 c6         1 547       0.155800
     28 N44          2.2330     1.3310     7.9410 n7         1 547      -0.862400
     29 C45          2.5880     1.2270     6.4970 c6         1 547       0.155800
     30 C46          2.7930    -0.2530     6.0310 c6         1 547       0.164800
     31 H1           3.1660    -4.1580    -0.4010 h4         1 547       0.019100
     32 H6           3.0240    -3.0620     1.8300 ha         1 547       0.124000
     33 H13         -0.5000    -4.9760     4.5740 ha         1 547       0.124000
     34 H14         -1.0200    -4.8610     6.9960 ha         1 547       0.115000
     35 H15         -0.4540    -6.7740     8.4900 ha         1 547       0.114000
     36 H16          0.6430    -8.8030     7.5460 ha         1 547       0.115000
     37 H17          1.2110    -8.9080     5.1360 ha         1 547       0.124000
     38 H24         -1.6500    -8.5250     3.7730 ha         1 547       0.126000
     39 H25         -2.7080   -10.7160     4.2690 ha         1 547       0.114500
     40 H26         -1.6460   -12.8280     3.4770 ha         1 547       0.114000
     41 H27          0.4820   -12.7390     2.1810 ha         1 547       0.114500
     42 H28          1.5530   -10.5500     1.6890 ha         1 547       0.126000
     43 HN34         1.6060    -4.8350     4.7200 hn         1 547       0.502000
     44 H351         1.0600    -2.2740     3.8700 h1         1 547       0.051700
     45 H352         2.8280    -2.2540     4.0210 h1         1 547       0.051700
     46 H361         2.6430    -2.9830     6.4010 h1         1 547       0.038700
     47 H362         0.8920    -3.1080     6.2340 h1         1 547       0.038700
     48 H421         2.0920    -1.4650     8.4070 h1         1 547       0.039200
     49 H422         0.3690    -1.5920     8.0310 h1         1 547       0.039200
     50 H431         0.1690     0.8550     7.7840 h1         1 547       0.038200
     51 H432         0.8930     0.4770     9.3580 h1         1 547       0.038200
     52 HN44         1.9950     2.3070     8.1620 hn         1 547       0.414000
     53 H451         3.5040     1.8030     6.3000 h1         1 547       0.038200
     54 H452         1.7830     1.6760     5.8950 h1         1 547       0.038200
     55 H461         2.9890    -0.2440     4.9500 h1         1 547       0.039200
     56 H462         3.6950    -0.6520     6.5180 h1         1 547       0.039200
@<TRIPOS>BOND
     1     1     2 ar  
     2     1     6 ar  
     3     1    31 1   
     4     2     3 ar  
     5     3     4 ar  
     6     3     7 1   
     7     4     5 ar  
     8     4     9 1   
     9     5     6 ar  
    10     5    22 1   
    11     6    32 1   
    12     7     8 1   
    13     8     9 2   
    14     8    16 1   
    15     9    10 1   
    16    10    11 ar  
    17    10    15 ar  
    18    11    12 ar  
    19    11    33 1   
    20    12    13 ar  
    21    12    34 1   
    22    13    14 ar  
    23    13    35 1   
    24    14    15 ar  
    25    14    36 1   
    26    15    37 1   
    27    16    17 ar  
    28    16    21 ar  
    29    17    18 ar  
    30    17    38 1   
    31    18    19 ar  
    32    18    39 1   
    33    19    20 ar  
    34    19    40 1   
    35    20    21 ar  
    36    20    41 1   
    37    21    42 1   
    38    22    23 1   
    39    22    43 1   
    40    23    24 1   
    41    23    44 1   
    42    23    45 1   
    43    24    25 1   
    44    24    46 1   
    45    24    47 1   
    46    25    26 1   
    47    25    30 1   
    48    26    27 1   
    49    26    48 1   
    50    26    49 1   
    51    27    28 1   
    52    27    50 1   
    53    27    51 1   
    54    28    29 1   
    55    28    52 1   
    56    29    30 1   
    57    29    53 1   
    58    29    54 1   
    59    30    55 1   
    60    30    56 1   
@<TRIPOS>SUBSTRUCTURE
     1 547         1 TEMP              0 ****  ****    0 ROOT
