@<TRIPOS>MOLECULE
547
   56    60     1     0     0
SMALL
bcc


@<TRIPOS>ATOM
      1 C1           2.2430    -4.5260     0.5590 ca         1 547       0.467200
      2 N2           1.9570    -5.8070     0.3260 nb         1 547      -0.695000
      3 C3           1.4580    -6.4160     1.3780 ca         1 547       0.610600
      4 C4           1.2010    -5.9050     2.6440 ca         1 547      -0.301100
      5 C5           1.5330    -4.5530     2.8810 ca         1 547       0.291600
      6 C6           2.0620    -3.8720     1.7700 ca         1 547      -0.376300
      7 O9           1.1210    -7.7180     1.3360 os         1 547      -0.281400
      8 C10          0.6390    -8.0630     2.5660 cc         1 547       0.095900
      9 C11          0.6660    -6.9970     3.4120 cd         1 547      -0.061400
     10 C12          0.2710    -6.9660     4.8290 ca         1 547      -0.030800
     11 C13         -0.7870    -6.1580     5.2490 ca         1 547      -0.121500
     12 C14         -1.1510    -6.1150     6.5880 ca         1 547      -0.133000
     13 C15         -0.4650    -6.8800     7.5210 ca         1 547      -0.127000
     14 C16          0.5890    -7.6860     7.1110 ca         1 547      -0.133000
     15 C17          0.9580    -7.7270     5.7740 ca         1 547      -0.121500
     16 C23          0.2020    -9.4440     2.7180 ca         1 547      -0.037800
     17 C24         -0.7820    -9.7850     3.6500 ca         1 547      -0.099500
     18 C25         -1.1920   -11.1010     3.7910 ca         1 547      -0.135000
     19 C26         -0.6360   -12.0990     3.0000 ca         1 547      -0.116000
     20 C27          0.3330   -11.7670     2.0630 ca         1 547      -0.135000
     21 C28          0.7510   -10.4530     1.9200 ca         1 547      -0.099500
     22 N34          1.3520    -3.9690     4.0780 nu         1 547      -0.772600
     23 C35          1.7420    -2.6130     4.3870 c3         1 547       0.224800
     24 C36          1.3270    -2.2860     5.8160 c3         1 547       0.152800
     25 N39          1.7000    -0.9410     6.1940 n3         1 547      -0.721600
     26 C42          0.9050    -0.4590     7.3120 c6         1 547       0.164800
     27 C43          1.2730     0.9750     7.6490 c6         1 547       0.155800
     28 N44          2.6860     1.0500     7.9680 n7         1 547      -0.807200
     29 C45          3.4810     0.6060     6.8380 c6         1 547       0.155800
     30 C46          3.1180    -0.8270     6.4970 c6         1 547       0.164800
     31 H1           2.6550    -3.9710    -0.2750 h4         1 547       0.019100
     32 H6           2.3450    -2.8310     1.8420 ha         1 547       0.142000
     33 H13         -1.3340    -5.5690     4.5230 ha         1 547       0.142000
     34 H14         -1.9740    -5.4850     6.9000 ha         1 547       0.133000
     35 H15         -0.7490    -6.8470     8.5650 ha         1 547       0.132000
     36 H16          1.1290    -8.2830     7.8330 ha         1 547       0.133000
     37 H17          1.7870    -8.3480     5.4600 ha         1 547       0.142000
     38 H24         -1.2470    -9.0210     4.2580 ha         1 547       0.144000
     39 H25         -1.9590   -11.3440     4.5150 ha         1 547       0.132500
     40 H26         -0.9610   -13.1250     3.1090 ha         1 547       0.132000
     41 H27          0.7700   -12.5350     1.4380 ha         1 547       0.132500
     42 H28          1.5130   -10.2210     1.1880 ha         1 547       0.144000
     43 HN34         1.0630    -4.5510     4.8470 hn         1 547       0.446800
     44 H351         1.2510    -1.9110     3.7080 h1         1 547       0.051700
     45 H352         2.8220    -2.4900     4.2540 h1         1 547       0.051700
     46 H361         1.7500    -3.0370     6.5060 h1         1 547       0.038700
     47 H362         0.2390    -2.3770     5.8810 h1         1 547       0.038700
     48 H421         1.0400    -1.0870     8.2090 h1         1 547       0.039200
     49 H422        -0.1510    -0.5060     7.0410 h1         1 547       0.039200
     50 H431         0.9940     1.6190     6.8000 h1         1 547       0.038200
     51 H432         0.6870     1.3010     8.5100 h1         1 547       0.038200
     52 HN44         2.9330     2.0000     8.2080 hn         1 547       0.358800
     53 H451         4.5400     0.6540     7.0980 h1         1 547       0.038200
     54 H452         3.3350     1.2310     5.9430 h1         1 547       0.038200
     55 H461         3.7070    -1.1430     5.6340 h1         1 547       0.039200
     56 H462         3.4000    -1.4850     7.3370 h1         1 547       0.039200
@<TRIPOS>BOND
     1     1     2 ar  
     2     1     6 ar  
     3     1    31 1   
     4     2     3 ar  
     5     3     4 ar  
     6     3     7 1   
     7     4     5 ar  
     8     4     9 1   
     9     5     6 ar  
    10     5    22 1   
    11     6    32 1   
    12     7     8 1   
    13     8     9 2   
    14     8    16 1   
    15     9    10 1   
    16    10    11 ar  
    17    10    15 ar  
    18    11    12 ar  
    19    11    33 1   
    20    12    13 ar  
    21    12    34 1   
    22    13    14 ar  
    23    13    35 1   
    24    14    15 ar  
    25    14    36 1   
    26    15    37 1   
    27    16    17 ar  
    28    16    21 ar  
    29    17    18 ar  
    30    17    38 1   
    31    18    19 ar  
    32    18    39 1   
    33    19    20 ar  
    34    19    40 1   
    35    20    21 ar  
    36    20    41 1   
    37    21    42 1   
    38    22    23 1   
    39    22    43 1   
    40    23    24 1   
    41    23    44 1   
    42    23    45 1   
    43    24    25 1   
    44    24    46 1   
    45    24    47 1   
    46    25    26 1   
    47    25    30 1   
    48    26    27 1   
    49    26    48 1   
    50    26    49 1   
    51    27    28 1   
    52    27    50 1   
    53    27    51 1   
    54    28    29 1   
    55    28    52 1   
    56    29    30 1   
    57    29    53 1   
    58    29    54 1   
    59    30    55 1   
    60    30    56 1   
@<TRIPOS>SUBSTRUCTURE
     1 547         1 TEMP              0 ****  ****    0 ROOT
