@<TRIPOS>MOLECULE
548
   41    44     1     0     0
SMALL
bcc


@<TRIPOS>ATOM
      1 C1           1.4960     1.6850     2.2150 c3         1 548      -0.051800
      2 F1           2.2940    -3.4920     1.0440 f          1 548      -0.229300
      3 N1           4.3180     2.1470    -0.2250 nb         1 548      -0.647000
      4 CL1         -3.0850    -3.1870     0.7160 cl         1 548      -0.054400
      5 C2           2.2150     1.9340     0.9260 ca         1 548      -0.168600
      6 F2           3.0020    -2.0090    -0.3460 f          1 548      -0.229300
      7 N2          -0.5660     3.4080    -0.4820 nc         1 548      -0.553300
      8 C3           3.6060     1.9240     0.8710 ca         1 548       0.399200
      9 F3           1.9710    -3.7570    -1.0620 f          1 548      -0.229300
     10 N3          -0.7980     1.2480    -0.1490 na         1 548      -0.038200
     11 C4           3.6640     2.4080    -1.3480 ca         1 548       0.395200
     12 N4          -3.0600    -0.3120     0.2620 nc         1 548      -0.675000
     13 C5           2.2810     2.4460    -1.4220 ca         1 548      -0.208300
     14 C6           1.5440     2.1910    -0.2740 ca         1 548      -0.078900
     15 C7           0.0750     2.2710    -0.3200 cd         1 548       0.421400
     16 C8          -1.8900     3.1550    -0.3990 cc         1 548       0.089400
     17 C9          -2.0740     1.8020    -0.1830 cd         1 548      -0.248600
     18 C10         -0.6330    -0.1310    -0.0210 ca         1 548      -0.075600
     19 C11          0.5980    -0.7650    -0.1480 ca         1 548      -0.083000
     20 C12          0.6780    -2.1310     0.0290 ca         1 548      -0.179300
     21 C13         -0.4570    -2.8850     0.3140 ca         1 548      -0.083000
     22 C14         -1.6760    -2.2530     0.3970 ca         1 548      -0.013900
     23 C15         -1.8080    -0.8640     0.2200 ca         1 548       0.412600
     24 C16         -3.1980     0.9550     0.0430 cd         1 548       0.526600
     25 C17         -4.5730     1.5310     0.0380 c3         1 548      -0.154400
     26 C18          1.9920    -2.8410    -0.0870 c3         1 548       0.725200
     27 C19         -2.8980     4.2440    -0.5180 c3         1 548      -0.020900
     28 H1           0.7290     2.4380     2.3970 hc         1 548       0.051367
     29 H1A          1.0020     0.7100     2.2220 hc         1 548       0.051367
     30 H1B          2.1890     1.7010     3.0540 hc         1 548       0.051367
     31 H3           4.1680     1.7280     1.7790 h4         1 548       0.024100
     32 H4           4.2630     2.5960    -2.2320 h4         1 548       0.026100
     33 H5           1.7890     2.6630    -2.3610 ha         1 548       0.155000
     34 H11          1.4820    -0.2010    -0.3950 ha         1 548       0.171000
     35 H13         -0.3990    -3.9560     0.4580 ha         1 548       0.168000
     36 H17         -5.3000     0.7530     0.2590 hc         1 548       0.065033
     37 H17A        -4.6750     2.3250     0.7790 hc         1 548       0.065033
     38 H17B        -4.8110     1.9620    -0.9350 hc         1 548       0.065033
     39 H19         -3.5560     4.0980    -1.3750 hc         1 548       0.053033
     40 H19A        -3.5280     4.3120     0.3690 hc         1 548       0.053033
     41 H19B        -2.3920     5.1980    -0.6430 hc         1 548       0.053033
@<TRIPOS>BOND
     1     1     5 1   
     2     1    28 1   
     3     1    29 1   
     4     1    30 1   
     5     2    26 1   
     6     3     8 ar  
     7     3    11 ar  
     8     4    22 1   
     9     5     8 ar  
    10     5    14 ar  
    11     6    26 1   
    12     7    15 2   
    13     7    16 1   
    14     8    31 1   
    15     9    26 1   
    16    10    15 1   
    17    10    17 1   
    18    10    18 1   
    19    11    13 ar  
    20    11    32 1   
    21    12    23 1   
    22    12    24 2   
    23    13    14 ar  
    24    13    33 1   
    25    14    15 1   
    26    16    17 2   
    27    16    27 1   
    28    17    24 1   
    29    18    19 ar  
    30    18    23 ar  
    31    19    20 ar  
    32    19    34 1   
    33    20    21 ar  
    34    20    26 1   
    35    21    22 ar  
    36    21    35 1   
    37    22    23 ar  
    38    24    25 1   
    39    25    36 1   
    40    25    37 1   
    41    25    38 1   
    42    27    39 1   
    43    27    40 1   
    44    27    41 1   
@<TRIPOS>SUBSTRUCTURE
     1 548         1 TEMP              0 ****  ****    0 ROOT
