@<TRIPOS>MOLECULE
548
   41    44     1     0     0
SMALL
No Charge or Current Charge


@<TRIPOS>ATOM
      1 C1           1.5880     1.4880     2.3240 c3         1 548      -0.051800
      2 F1           2.9090    -2.3750     0.4280 f          1 548      -0.108000
      3 N1           4.4440     2.3390    -0.0420 nb         1 548      -0.647000
      4 Cl1         -3.2070    -3.2590     0.7570 cl         1 548      -0.146000
      5 C2           2.3040     1.8820     1.0330 ca         1 548      -0.103300
      6 F2           2.3360    -2.6350    -1.6520 f          1 548      -0.108000
      7 N2          -0.5310     3.2980    -0.6740 nc         1 548      -0.553300
      8 C3           3.7150     1.9470     1.0280 ca         1 548       0.333900
      9 F3           1.8950    -4.1880    -0.2000 f          1 548      -0.108000
     10 N3          -0.7980     1.3140     0.2630 na         1 548       0.063200
     11 C4           3.7740     2.6980    -1.1590 ca         1 548       0.329900
     12 N4          -3.1890    -0.2650     0.5470 nc         1 548      -0.675000
     13 C5           2.3740     2.6640    -1.2520 ca         1 548      -0.125000
     14 C6           1.6050     2.2240    -0.1550 ca         1 548      -0.078900
     15 C7           0.1290     2.2130    -0.2640 cd         1 548       0.421400
     16 C8          -1.8700     3.0520    -0.4940 cc         1 548       0.089400
     17 C9          -2.0440     1.7890     0.0160 cd         1 548      -0.234000
     18 C10         -0.7040    -0.0810     0.1450 ca         1 548      -0.061000
     19 C11          0.5110    -0.7590    -0.1250 ca         1 548      -0.065000
     20 C12          0.5900    -2.1630    -0.0980 ca         1 548      -0.179300
     21 C13         -0.5690    -2.9020     0.2000 ca         1 548      -0.065000
     22 C14         -1.7880    -2.2510     0.4360 ca         1 548       0.143000
     23 C15         -1.8920    -0.8360     0.3880 ca         1 548       0.282000
     24 C16         -3.2410     1.0390     0.2580 cd         1 548       0.461300
     25 C17         -4.6280     1.6140     0.1600 c3         1 548      -0.154400
     26 C18          1.9330    -2.8480    -0.3800 c3         1 548       0.361300
     27 C19         -2.8860     4.0780    -0.9260 c3         1 548      -0.020900
     28 H1           0.7150     2.1240     2.5120 hc         1 548       0.051367
     29 H1A          1.2520     0.4450     2.2950 hc         1 548       0.051367
     30 H1B          2.2480     1.5900     3.1940 hc         1 548       0.051367
     31 H3           4.2840     1.6870     1.9190 h4         1 548       0.024100
     32 H4           4.3790     3.0230    -2.0050 h4         1 548       0.026100
     33 H5           1.8960     2.9680    -2.1800 ha         1 548       0.137000
     34 H11          1.4230    -0.2190    -0.3510 ha         1 548       0.153000
     35 H13         -0.5440    -3.9890     0.2350 ha         1 548       0.150000
     36 H17         -5.3890     0.9080     0.5130 hc         1 548       0.065033
     37 H17A        -4.7200     2.5190     0.7700 hc         1 548       0.065033
     38 H17B        -4.8730     1.8670    -0.8770 hc         1 548       0.065033
     39 H19         -3.5360     3.6810    -1.7140 hc         1 548       0.053033
     40 H19A        -3.5130     4.3910    -0.0840 hc         1 548       0.053033
     41 H19B        -2.3990     4.9760    -1.3240 hc         1 548       0.053033
@<TRIPOS>BOND
     1     1     5 1   
     2     1    28 1   
     3     1    29 1   
     4     1    30 1   
     5     2    26 1   
     6     3     8 ar  
     7     3    11 ar  
     8     4    22 1   
     9     5     8 ar  
    10     5    14 ar  
    11     6    26 1   
    12     7    15 2   
    13     7    16 1   
    14     8    31 1   
    15     9    26 1   
    16    10    15 1   
    17    10    17 1   
    18    10    18 1   
    19    11    13 ar  
    20    11    32 1   
    21    12    23 1   
    22    12    24 2   
    23    13    14 ar  
    24    13    33 1   
    25    14    15 1   
    26    16    17 2   
    27    16    27 1   
    28    17    24 1   
    29    18    19 ar  
    30    18    23 ar  
    31    19    20 ar  
    32    19    34 1   
    33    20    21 ar  
    34    20    26 1   
    35    21    22 ar  
    36    21    35 1   
    37    22    23 ar  
    38    24    25 1   
    39    25    36 1   
    40    25    37 1   
    41    25    38 1   
    42    27    39 1   
    43    27    40 1   
    44    27    41 1   
@<TRIPOS>SUBSTRUCTURE
     1 548         1 TEMP              0 ****  ****    0 ROOT
