@<TRIPOS>MOLECULE
549
   26    27     1     0     0
SMALL
bcc


@<TRIPOS>ATOM
      1 C10         -3.1740    -0.8050     0.0020 c3         1 549       0.070000
      2 C01          2.0550    -0.1350    -0.0090 ca         1 549      -0.162600
      3 C02          1.3490    -1.3540     0.0040 ca         1 549      -0.069000
      4 C03         -0.0310    -1.4130     0.0070 ca         1 549      -0.191000
      5 C04         -0.7120    -0.1990    -0.0020 ca         1 549      -0.088200
      6 C05         -0.0350     1.0320    -0.0130 ca         1 549       0.042400
      7 C06          1.3570     1.0630    -0.0170 ca         1 549      -0.049000
      8 N07         -2.0450     0.1220    -0.0040 na         1 549      -0.166300
      9 C08         -2.1100     1.4780    -0.0140 cc         1 549       0.376700
     10 N09         -0.9460     2.0640    -0.0200 nd         1 549      -0.579100
     11 C11         -4.0090    -0.6310     1.2630 c3         1 549      -0.104100
     12 C12         -4.0030    -0.6530    -1.2650 c3         1 549      -0.104100
     13 O14          4.1390    -1.2490    -0.0060 o          1 549      -0.828300
     14 O15          4.1390     0.9780    -0.0360 o          1 549      -0.828300
     15 H20         -2.7350    -1.8030     0.0120 h1         1 549       0.066700
     16 H16          1.9150    -2.2760     0.0110 ha         1 549       0.146000
     17 H17         -0.5480    -2.3640     0.0170 ha         1 549       0.108000
     18 H18          1.8880     2.0060    -0.0280 ha         1 549       0.161000
     19 H19         -3.0560     1.9990    -0.0170 h5         1 549       0.036800
     20 H23         -3.3970    -0.7340     2.1590 hc         1 549       0.039533
     21 H21         -4.4950     0.3460     1.2880 hc         1 549       0.039533
     22 H22         -4.7910    -1.3900     1.2970 hc         1 549       0.039533
     23 H24         -3.3870    -0.7730    -2.1570 hc         1 549       0.039533
     24 H25         -4.7860    -1.4110    -1.2890 hc         1 549       0.039533
     25 H26         -4.4870     0.3240    -1.3100 hc         1 549       0.039533
     26 C13          3.5780    -0.1360    -0.0180 c          1 549       0.925200
@<TRIPOS>BOND
     1     1     8 1   
     2     1    11 1   
     3     1    12 1   
     4     1    15 1   
     5     2     3 ar  
     6     2     7 ar  
     7     2    26 1   
     8     3     4 ar  
     9     3    16 1   
    10     4     5 ar  
    11     4    17 1   
    12     5     6 ar  
    13     5     8 1   
    14     6     7 ar  
    15     6    10 1   
    16     7    18 1   
    17     8     9 1   
    18     9    10 2   
    19     9    19 1   
    20    11    20 1   
    21    11    21 1   
    22    11    22 1   
    23    12    23 1   
    24    12    24 1   
    25    12    25 1   
    26    13    26 1   
    27    14    26 1   
@<TRIPOS>SUBSTRUCTURE
     1 549         1 TEMP              0 ****  ****    0 ROOT
