@<TRIPOS>MOLECULE
549
   26    27     1     0     0
SMALL
No Charge or Current Charge


@<TRIPOS>ATOM
      1 C10         -3.1510    -0.7790     0.1750 c3         1 549       0.099300
      2 C01          2.0540    -0.1550    -0.1340 ca         1 549      -0.162600
      3 C02          1.3060    -1.3630    -0.2210 ca         1 549      -0.051000
      4 C03         -0.1000    -1.3530    -0.1110 ca         1 549      -0.173000
      5 C04         -0.7310    -0.1180     0.0880 ca         1 549      -0.088200
      6 C05         -0.0360     1.0550     0.1700 ca         1 549       0.042400
      7 C06          1.3630     1.0710     0.0640 ca         1 549      -0.031000
      8 N07         -2.0500     0.2060     0.2280 na         1 549      -0.195600
      9 C08         -2.1180     1.5940     0.3820 cc         1 549       0.376700
     10 N09         -0.8860     2.1440     0.3560 nd         1 549      -0.579100
     11 C11         -4.3050    -0.4220     1.1380 c3         1 549      -0.104100
     12 C12         -3.6540    -0.9780    -1.2700 c3         1 549      -0.104100
     13 O14          4.1290    -1.2420    -0.4240 o          1 549      -0.723000
     14 O15          4.1690     0.8900    -0.1730 o          1 549      -0.723000
     15 H20         -2.7490    -1.7410     0.5180 h1         1 549       0.066700
     16 H16          1.8140    -2.3130    -0.3750 ha         1 549       0.128000
     17 H17         -0.6660    -2.2790    -0.1820 ha         1 549       0.090000
     18 H18          1.8970     2.0150     0.1320 ha         1 549       0.143000
     19 H19         -3.0560     2.1240     0.5010 h5         1 549       0.036800
     20 H23         -3.9290    -0.2980     2.1600 hc         1 549       0.039533
     21 H21         -4.8010     0.5080     0.8340 hc         1 549       0.039533
     22 H22         -5.0560    -1.2200     1.1480 hc         1 549       0.039533
     23 H24         -2.8320    -1.2930    -1.9240 hc         1 549       0.039533
     24 H25         -4.4310    -1.7510    -1.3050 hc         1 549       0.039533
     25 H26         -4.0740    -0.0470    -1.6680 hc         1 549       0.039533
     26 C13          3.5660    -0.1700    -0.2530 c          1 549       0.714600
@<TRIPOS>BOND
     1     1     8 1   
     2     1    11 1   
     3     1    12 1   
     4     1    15 1   
     5     2     3 ar  
     6     2     7 ar  
     7     2    26 1   
     8     3     4 ar  
     9     3    16 1   
    10     4     5 ar  
    11     4    17 1   
    12     5     6 ar  
    13     5     8 1   
    14     6     7 ar  
    15     6    10 1   
    16     7    18 1   
    17     8     9 1   
    18     9    10 2   
    19     9    19 1   
    20    11    20 1   
    21    11    21 1   
    22    11    22 1   
    23    12    23 1   
    24    12    24 1   
    25    12    25 1   
    26    13    26 1   
    27    14    26 1   
@<TRIPOS>SUBSTRUCTURE
     1 549         1 TEMP              0 ****  ****    0 ROOT
