@<TRIPOS>MOLECULE
54B
   68    73     1     0     0
SMALL
abcg2


@<TRIPOS>ATOM
      1 FBL         -2.2560    -4.5610    -1.8760 f          1 54B      -0.106667
      2 CBK         -1.1440    -4.5710    -1.1340 c3         1 54B       0.295700
      3 FBM         -1.5100    -4.9260     0.1030 f          1 54B      -0.106667
      4 FBN         -0.3480    -5.5300    -1.6080 f          1 54B      -0.106667
      5 CBJ         -0.4670    -3.2440    -1.1470 cc         1 54B       0.159300
      6 NBO         -1.1720    -2.1600    -0.7400 nc         1 54B      -0.610000
      7 CBI          0.8170    -3.0160    -1.5270 cd         1 54B      -0.227000
      8 SBP          1.1660    -1.3590    -1.3540 ss         1 54B       0.086600
      9 CBH         -0.4450    -1.0880    -0.7800 cd         1 54B       0.476900
     10 CBF         -0.9750     0.2380    -0.4440 ca         1 54B      -0.045500
     11 CBE         -2.3160     0.4740    -0.6790 ca         1 54B      -0.192000
     12 CAX         -2.8540     1.7340    -0.3900 ca         1 54B       0.510900
     13 NAY         -4.2040     1.9150    -0.6040 ns         1 54B      -0.344900
     14 CAZ         -4.9190     3.1040    -0.6290 c          1 54B       0.661100
     15 OBA         -4.4070     4.2070    -0.6020 o          1 54B      -0.573100
     16 NBB         -6.2530     2.9010    -0.7220 ns         1 54B      -0.526900
     17 CBC         -7.1990     3.9980    -0.7180 c3         1 54B       0.114000
     18 CBD         -8.5510     3.5300    -1.2220 c3         1 54B      -0.111100
     19 NAW         -2.1150     2.7190     0.0910 nb         1 54B      -0.670000
     20 CAV         -0.8310     2.4830     0.3120 ca         1 54B       0.383900
     21 CAU         -0.1900     1.2730     0.0900 cp         1 54B      -0.115000
     22 CAT          1.2470     1.1310     0.3900 cp         1 54B      -0.150000
     23 CAS          2.1590     1.8870    -0.3110 ca         1 54B       0.005000
     24 CAL          3.5310     1.6860    -0.1380 ca         1 54B      -0.239900
     25 CAM          4.4900     2.4700    -0.8810 cc         1 54B       0.581200
     26 OAN          5.8080     2.1840    -0.7880 os         1 54B      -0.398700
     27 CAO          6.4660     3.0790    -1.5900 c          1 54B       0.661100
     28 OAP          7.6590     3.1020    -1.7340 o          1 54B      -0.500000
     29 NAQ          5.4780     3.8310    -2.1060 ns         1 54B      -0.392400
     30 NAR          4.2510     3.4560    -1.6620 nd         1 54B      -0.481300
     31 CAK          3.9160     0.6830     0.7410 ca         1 54B       0.434900
     32 NAJ          3.0580    -0.0200     1.4570 nb         1 54B      -0.749000
     33 CAI          1.7500     0.1930     1.3360 ca         1 54B       0.640900
     34 NAH          0.9060    -0.5870     2.0720 nh         1 54B      -0.750300
     35 CAC          1.4270    -1.6630     2.9140 c5         1 54B       0.200000
     36 CAB          1.5720    -1.0060     4.2960 c5         1 54B      -0.089400
     37 CAA          0.5010     0.1020     4.2870 c5         1 54B      -0.089400
     38 CAG         -0.1690    -0.0320     2.9050 c5         1 54B       0.200000
     39 CAF         -1.3060    -1.0420     2.9290 c6         1 54B       0.170800
     40 NAE         -0.8560    -2.2870     3.5170 n3         1 54B      -0.728600
     41 CBG         -1.8900    -3.2920     3.5320 c3         1 54B       0.157100
     42 CAD          0.3730    -2.7630     2.9170 c6         1 54B       0.170800
     43 H1           1.5590    -3.7130    -1.8840 h4         1 54B       0.179000
     44 H4          -2.9370    -0.3030    -1.1070 ha         1 54B       0.142000
     45 H5          -4.7150     1.0740    -0.8240 hn         1 54B       0.153000
     46 H6          -6.6220     1.9810    -0.5360 hn         1 54B       0.305500
     47 H7          -7.3010     4.4200     0.2870 h1         1 54B       0.053200
     48 H8          -6.8190     4.7930    -1.3580 h1         1 54B       0.053200
     49 H9          -9.2630     4.3540    -1.1990 hc         1 54B       0.042700
     50 H10         -8.4860     3.1660    -2.2480 hc         1 54B       0.042700
     51 H11         -8.9540     2.7290    -0.6010 hc         1 54B       0.042700
     52 H12         -0.2630     3.3110     0.7260 h4         1 54B       0.031100
     53 H13          1.8020     2.6040    -1.0400 ha         1 54B       0.142000
     54 H14          5.5830     4.6110    -2.7360 hn         1 54B       0.500000
     55 H15          4.9620     0.4420     0.8890 h4         1 54B       0.038100
     56 H16          2.3620    -2.0520     2.5190 h1         1 54B       0.083700
     57 H17          1.4230    -1.7270     5.1000 hc         1 54B       0.055950
     58 H18          2.5730    -0.5870     4.4080 hc         1 54B       0.055950
     59 H19         -0.2260    -0.0080     5.0910 hc         1 54B       0.055950
     60 H20          0.9540     1.0900     4.3850 hc         1 54B       0.055950
     61 H21         -0.5290     0.9210     2.5250 h1         1 54B       0.083700
     62 H22         -2.1290    -0.6450     3.5300 h1         1 54B       0.044200
     63 H23         -1.6890    -1.1770     1.9040 h1         1 54B       0.044200
     64 H25         -2.2130    -3.5990     2.5260 h1         1 54B       0.033700
     65 H26         -1.5370    -4.1830     4.0540 h1         1 54B       0.033700
     66 H27         -2.7670    -2.9190     4.0640 h1         1 54B       0.033700
     67 H28          0.2320    -3.1160     1.8810 h1         1 54B       0.044200
     68 H29          0.7400    -3.6130     3.4990 h1         1 54B       0.044200
@<TRIPOS>BOND
     1     1     2 1   
     2     2     3 1   
     3     2     4 1   
     4     2     5 1   
     5     5     6 1   
     6     5     7 2   
     7     6     9 2   
     8     7     8 1   
     9     7    43 1   
    10     8     9 1   
    11     9    10 1   
    12    10    11 ar  
    13    10    21 ar  
    14    11    12 ar  
    15    11    44 1   
    16    12    13 1   
    17    12    19 ar  
    18    13    14 1   
    19    13    45 1   
    20    14    15 2   
    21    14    16 1   
    22    16    17 1   
    23    16    46 1   
    24    17    18 1   
    25    17    47 1   
    26    17    48 1   
    27    18    49 1   
    28    18    50 1   
    29    18    51 1   
    30    19    20 ar  
    31    20    21 ar  
    32    20    52 1   
    33    21    22 1   
    34    22    23 ar  
    35    22    33 ar  
    36    23    24 ar  
    37    23    53 1   
    38    24    25 1   
    39    24    31 ar  
    40    25    26 1   
    41    25    30 2   
    42    26    27 1   
    43    27    28 2   
    44    27    29 1   
    45    29    30 1   
    46    29    54 1   
    47    31    32 ar  
    48    31    55 1   
    49    32    33 ar  
    50    33    34 1   
    51    34    35 1   
    52    34    38 1   
    53    35    36 1   
    54    35    42 1   
    55    35    56 1   
    56    36    37 1   
    57    36    57 1   
    58    36    58 1   
    59    37    38 1   
    60    37    59 1   
    61    37    60 1   
    62    38    39 1   
    63    38    61 1   
    64    39    40 1   
    65    39    62 1   
    66    39    63 1   
    67    40    41 1   
    68    40    42 1   
    69    41    64 1   
    70    41    65 1   
    71    41    66 1   
    72    42    67 1   
    73    42    68 1   
@<TRIPOS>SUBSTRUCTURE
     1 54B         1 TEMP              0 ****  ****    0 ROOT
