@<TRIPOS>MOLECULE
54B
   68    73     1     0     0
SMALL
No Charge or Current Charge


@<TRIPOS>ATOM
      1 FBL         -2.5600    -4.6370    -1.2140 f          1 54B      -0.106667
      2 CBK         -1.2350    -4.7040    -0.9430 c3         1 54B       0.295700
      3 FBM         -1.1070    -5.2400     0.2930 f          1 54B      -0.106667
      4 FBN         -0.7010    -5.5910    -1.8150 f          1 54B      -0.106667
      5 CBJ         -0.5540    -3.3440    -1.0310 cc         1 54B       0.159300
      6 NBO         -1.2290    -2.2080    -0.6390 nc         1 54B      -0.610000
      7 CBI          0.7320    -3.1310    -1.4710 cd         1 54B      -0.227000
      8 SBP          1.1510    -1.4290    -1.4250 ss         1 54B       0.086600
      9 CBH         -0.4480    -1.1360    -0.7410 cd         1 54B       0.476900
     10 CBF         -0.9620     0.2310    -0.4600 ca         1 54B      -0.045500
     11 CBE         -2.3450     0.4820    -0.6130 ca         1 54B      -0.192000
     12 CAX         -2.8670     1.7560    -0.3640 ca         1 54B       0.510900
     13 NAY         -4.2430     1.9960    -0.4620 ns         1 54B      -0.344900
     14 CAZ         -4.9160     3.1290    -0.8370 c          1 54B       0.661100
     15 OBA         -4.3960     4.1640    -1.2250 o          1 54B      -0.573100
     16 NBB         -6.2760     2.9700    -0.7540 ns         1 54B      -0.526900
     17 CBC         -7.2470     4.0060    -1.1010 c3         1 54B       0.114000
     18 CBD         -8.6890     3.5210    -0.8890 c3         1 54B      -0.111100
     19 NAW         -2.1250     2.7810     0.0860 nb         1 54B      -0.670000
     20 CAV         -0.8080     2.5580     0.2630 ca         1 54B       0.383900
     21 CAU         -0.1670     1.3140     0.0270 cp         1 54B      -0.115000
     22 CAT          1.2920     1.1870     0.3360 cp         1 54B      -0.150000
     23 CAS          2.2180     1.9730    -0.3830 ca         1 54B       0.005000
     24 CAL          3.5910     1.8240    -0.1280 ca         1 54B      -0.239900
     25 CAM          4.5850     2.6010    -0.8500 cc         1 54B       0.581200
     26 OAN          5.9240     2.4480    -0.5920 os         1 54B      -0.398700
     27 CAO          6.6480     3.2730    -1.3870 c          1 54B       0.661100
     28 OAP          7.8570     3.4160    -1.4430 o          1 54B      -0.500000
     29 NAQ          5.6730     3.8910    -2.0980 ns         1 54B      -0.392400
     30 NAR          4.4010     3.5120    -1.8030 nd         1 54B      -0.481300
     31 CAK          3.9940     0.8940     0.8370 ca         1 54B       0.434900
     32 NAJ          3.1280     0.1420     1.5440 nb         1 54B      -0.749000
     33 CAI          1.8110     0.2920     1.3170 ca         1 54B       0.640900
     34 NAH          1.0020    -0.5290     2.1250 nh         1 54B      -0.750300
     35 CAC          1.4450    -1.7500     2.8340 c5         1 54B       0.200000
     36 CAB          1.6280    -1.1300     4.2570 c5         1 54B      -0.089400
     37 CAA          0.5760     0.0400     4.3020 c5         1 54B      -0.089400
     38 CAG         -0.1440    -0.0410     2.9180 c5         1 54B       0.200000
     39 CAF         -1.3490    -1.0520     2.9040 c6         1 54B       0.170800
     40 NAE         -0.9470    -2.4110     3.4050 n3         1 54B      -0.728600
     41 CBG         -2.0290    -3.4100     3.2980 c3         1 54B       0.157100
     42 CAD          0.3440    -2.8710     2.7860 c6         1 54B       0.170800
     43 H1           1.4490    -3.8630    -1.8210 h4         1 54B       0.179000
     44 H4          -3.0190    -0.3030    -0.9470 ha         1 54B       0.142000
     45 H5          -4.8190     1.2000    -0.2310 hn         1 54B       0.153000
     46 H6          -6.6180     2.0760    -0.4260 hn         1 54B       0.305500
     47 H7          -7.0620     4.8920    -0.4780 h1         1 54B       0.053200
     48 H8          -7.1060     4.2900    -2.1530 h1         1 54B       0.053200
     49 H9          -9.3990     4.3130    -1.1550 hc         1 54B       0.042700
     50 H10         -8.9000     2.6460    -1.5160 hc         1 54B       0.042700
     51 H11         -8.8560     3.2480     0.1600 hc         1 54B       0.042700
     52 H12         -0.2310     3.4020     0.6400 h4         1 54B       0.031100
     53 H13          1.8670     2.6720    -1.1410 ha         1 54B       0.142000
     54 H14          5.9240     4.5910    -2.8000 hn         1 54B       0.500000
     55 H15          5.0490     0.7370     1.0630 h4         1 54B       0.038100
     56 H16          2.3810    -2.1700     2.4390 h1         1 54B       0.083700
     57 H17          1.4700    -1.8690     5.0500 hc         1 54B       0.055950
     58 H18          2.6440    -0.7410     4.3850 hc         1 54B       0.055950
     59 H19         -0.1250    -0.0570     5.1380 hc         1 54B       0.055950
     60 H20          1.0800     1.0060     4.4200 hc         1 54B       0.055950
     61 H21         -0.5090     0.9460     2.6020 h1         1 54B       0.083700
     62 H22         -2.1620    -0.6480     3.5250 h1         1 54B       0.044200
     63 H23         -1.7380    -1.1240     1.8790 h1         1 54B       0.044200
     64 H25         -2.3000    -3.5800     2.2470 h1         1 54B       0.033700
     65 H26         -1.7160    -4.3690     3.7320 h1         1 54B       0.033700
     66 H27         -2.9250    -3.0700     3.8330 h1         1 54B       0.033700
     67 H28          0.1850    -3.1590     1.7370 h1         1 54B       0.044200
     68 H29          0.7180    -3.7620     3.3110 h1         1 54B       0.044200
@<TRIPOS>BOND
     1     1     2 1   
     2     2     3 1   
     3     2     4 1   
     4     2     5 1   
     5     5     6 1   
     6     5     7 2   
     7     6     9 2   
     8     7     8 1   
     9     7    43 1   
    10     8     9 1   
    11     9    10 1   
    12    10    11 ar  
    13    10    21 ar  
    14    11    12 ar  
    15    11    44 1   
    16    12    13 1   
    17    12    19 ar  
    18    13    14 1   
    19    13    45 1   
    20    14    15 2   
    21    14    16 1   
    22    16    17 1   
    23    16    46 1   
    24    17    18 1   
    25    17    47 1   
    26    17    48 1   
    27    18    49 1   
    28    18    50 1   
    29    18    51 1   
    30    19    20 ar  
    31    20    21 ar  
    32    20    52 1   
    33    21    22 1   
    34    22    23 ar  
    35    22    33 ar  
    36    23    24 ar  
    37    23    53 1   
    38    24    25 1   
    39    24    31 ar  
    40    25    26 1   
    41    25    30 2   
    42    26    27 1   
    43    27    28 2   
    44    27    29 1   
    45    29    30 1   
    46    29    54 1   
    47    31    32 ar  
    48    31    55 1   
    49    32    33 ar  
    50    33    34 1   
    51    34    35 1   
    52    34    38 1   
    53    35    36 1   
    54    35    42 1   
    55    35    56 1   
    56    36    37 1   
    57    36    57 1   
    58    36    58 1   
    59    37    38 1   
    60    37    59 1   
    61    37    60 1   
    62    38    39 1   
    63    38    61 1   
    64    39    40 1   
    65    39    62 1   
    66    39    63 1   
    67    40    41 1   
    68    40    42 1   
    69    41    64 1   
    70    41    65 1   
    71    41    66 1   
    72    42    67 1   
    73    42    68 1   
@<TRIPOS>SUBSTRUCTURE
     1 54B         1 TEMP              0 ****  ****    0 ROOT
