@<TRIPOS>MOLECULE
54C
   41    43     1     0     0
SMALL
bcc


@<TRIPOS>ATOM
      1 CA          -2.9700     0.1300    -0.4220 c3         1 54C       0.000500
      2 CB          -2.0090     0.3470     0.7680 c3         1 54C       0.178300
      3 CG          -0.6160    -0.0940     0.4380 cc         1 54C      -0.136400
      4 N           -2.6030     0.8630    -1.6160 n8         1 54C      -0.909800
      5 C           -4.4070     0.4770     0.0340 c          1 54C       0.937600
      6 O           -4.9700     1.4460    -0.5100 o          1 54C      -0.830800
      7 CD1          0.4790     0.6990     0.2650 cd         1 54C      -0.121100
      8 NE2          1.5870    -0.0490    -0.0660 na         1 54C      -0.077400
      9 C1           2.9460     0.4770    -0.2910 c3         1 54C       0.104700
     10 C2           3.8780    -0.0450     0.8010 c3         1 54C      -0.104100
     11 C3           3.4390     0.0920    -1.6890 c3         1 54C      -0.104100
     12 CE2          1.2090    -1.3720    -0.0920 ca         1 54C      -0.041200
     13 CD2         -0.1710    -1.4340     0.2150 ca         1 54C      -0.082800
     14 CE3         -0.8200    -2.6720     0.2720 ca         1 54C      -0.057000
     15 CZ3         -0.0980    -3.8220     0.0260 ca         1 54C      -0.178000
     16 C70          1.2690    -3.7520    -0.2780 ca         1 54C      -0.123000
     17 CH2          1.9350    -2.5420    -0.3390 ca         1 54C      -0.165000
     18 OB          -2.0370     1.6900     1.2030 oh         1 54C      -0.589800
     19 C4           2.8750     1.9940    -0.3030 cx         1 54C       0.053100
     20 C5           3.9790     2.8450     0.1210 cx         1 54C       0.046400
     21 O6           2.8150     2.6950     0.9220 op         1 54C      -0.372600
     22 H1          -2.9500    -0.9430    -0.6460 h1         1 54C       0.053700
     23 H2          -2.3820    -0.2530     1.6040 h1         1 54C       0.101700
     24 H3          -2.9810     1.8000    -1.5830 hn         1 54C       0.334800
     25 H4          -1.5990     0.9140    -1.7390 hn         1 54C       0.334800
     26 H9           0.5360     1.7680     0.3730 h4         1 54C       0.168000
     27 H10          3.8540    -1.1320     0.8520 hc         1 54C       0.047533
     28 H11          4.9100     0.2380     0.6040 hc         1 54C       0.047533
     29 H12          3.5910     0.3370     1.7800 hc         1 54C       0.047533
     30 H13          3.5150    -0.9840    -1.8250 hc         1 54C       0.047533
     31 H14          2.7670     0.4790    -2.4560 hc         1 54C       0.047533
     32 H15          4.4290     0.5140    -1.8600 hc         1 54C       0.047533
     33 H16         -1.8750    -2.7320     0.5110 ha         1 54C       0.154000
     34 H17         -0.5860    -4.7870     0.0720 ha         1 54C       0.120000
     35 H18          1.8200    -4.6630    -0.4670 ha         1 54C       0.110000
     36 H19          2.9910    -2.5350    -0.5680 ha         1 54C       0.114000
     37 H20         -1.9880     2.2560     0.4230 ho         1 54C       0.387000
     38 H21          2.2240     2.3930    -1.0830 h1         1 54C       0.095700
     39 H22          4.8900     2.4160     0.5250 h1         1 54C       0.072700
     40 H23          4.1040     3.8140    -0.3540 h1         1 54C       0.072700
     41 OXT         -4.8720    -0.2500     0.9330 o          1 54C      -0.830800
@<TRIPOS>BOND
     1     1     2 1   
     2     1     4 1   
     3     1     5 1   
     4     1    22 1   
     5     2     3 1   
     6     2    18 1   
     7     2    23 1   
     8     3     7 2   
     9     3    13 1   
    10     4    24 1   
    11     4    25 1   
    12     5     6 1   
    13     5    41 1   
    14     7     8 1   
    15     7    26 1   
    16     8     9 1   
    17     8    12 1   
    18     9    10 1   
    19     9    11 1   
    20     9    19 1   
    21    10    27 1   
    22    10    28 1   
    23    10    29 1   
    24    11    30 1   
    25    11    31 1   
    26    11    32 1   
    27    12    13 ar  
    28    12    17 ar  
    29    13    14 ar  
    30    14    15 ar  
    31    14    33 1   
    32    15    16 ar  
    33    15    34 1   
    34    16    17 ar  
    35    16    35 1   
    36    17    36 1   
    37    18    37 1   
    38    19    20 1   
    39    19    21 1   
    40    19    38 1   
    41    20    21 1   
    42    20    39 1   
    43    20    40 1   
@<TRIPOS>SUBSTRUCTURE
     1 54C         1 TEMP              0 ****  ****    0 ROOT
