@<TRIPOS>MOLECULE
54C
   41    43     1     0     0
SMALL
No Charge or Current Charge


@<TRIPOS>ATOM
      1 CA          -3.0500     0.1750    -0.5010 c3         1 54C       0.000500
      2 CB          -2.1100     0.3200     0.7380 c3         1 54C       0.201500
      3 CG          -0.6780    -0.0680     0.4310 cc         1 54C      -0.136400
      4 N           -2.7230     1.1560    -1.6240 n8         1 54C      -1.020200
      5 C           -4.5500     0.1010    -0.0090 c          1 54C       0.727000
      6 O           -5.2580     1.0970    -0.1090 o          1 54C      -0.725500
      7 CD1          0.4390     0.7570     0.3360 cd         1 54C      -0.171100
      8 NE2          1.5910    -0.0080     0.0160 na         1 54C      -0.106700
      9 C1           2.9800     0.5070    -0.2340 c3         1 54C       0.134000
     10 C2           3.9230    -0.0170     0.8930 c3         1 54C      -0.104100
     11 C3           3.4980     0.0460    -1.6270 c3         1 54C      -0.104100
     12 CE2          1.1600    -1.3440    -0.0220 ca         1 54C      -0.041200
     13 CD2         -0.1930    -1.4010     0.2090 ca         1 54C      -0.082800
     14 CE3         -0.9020    -2.6120     0.2450 ca         1 54C      -0.039000
     15 CZ3         -0.1900    -3.8070     0.0320 ca         1 54C      -0.160000
     16 C70          1.2010    -3.7690    -0.1950 ca         1 54C      -0.105000
     17 CH2          1.8880    -2.5390    -0.2180 ca         1 54C      -0.147000
     18 OB          -2.1650     1.6620     1.2450 oh         1 54C      -0.652000
     19 C4           3.0010     2.0580    -0.2900 cx         1 54C       0.076300
     20 C5           4.2680     2.8660    -0.2050 cx         1 54C       0.069600
     21 O6           3.3380     2.8060     0.9050 op         1 54C      -0.419000
     22 H1          -2.8460    -0.8210    -0.9160 h1         1 54C       0.053700
     23 H2          -2.4690    -0.3780     1.5100 h1         1 54C       0.101700
     24 H3          -3.0750     2.0880    -1.3760 hn         1 54C       0.390000
     25 H4          -1.7040     1.2620    -1.7010 hn         1 54C       0.390000
     26 H9           0.4870     1.8320     0.4780 h4         1 54C       0.218000
     27 H10          3.9330    -1.1080     0.9480 hc         1 54C       0.047533
     28 H11          4.9600     0.3000     0.7330 hc         1 54C       0.047533
     29 H12          3.5990     0.3530     1.8740 hc         1 54C       0.047533
     30 H13          3.6200    -1.0370    -1.7020 hc         1 54C       0.047533
     31 H14          2.8040     0.3580    -2.4180 hc         1 54C       0.047533
     32 H15          4.4770     0.4890    -1.8470 hc         1 54C       0.047533
     33 H16         -1.9720    -2.6340     0.4380 ha         1 54C       0.136000
     34 H17         -0.7120    -4.7610     0.0530 ha         1 54C       0.102000
     35 H18          1.7490    -4.6970    -0.3480 ha         1 54C       0.092000
     36 H19          2.9600    -2.5480    -0.3750 ha         1 54C       0.096000
     37 H20         -1.9360     2.2430     0.4920 ho         1 54C       0.426000
     38 H21          2.2070     2.4850    -0.9030 h1         1 54C       0.095700
     39 H22          5.2230     2.3700    -0.0420 h1         1 54C       0.072700
     40 H23          4.3130     3.8260    -0.7190 h1         1 54C       0.072700
     41 OXT         -4.9780    -0.9860     0.3570 o          1 54C      -0.725500
@<TRIPOS>BOND
     1     1     2 1   
     2     1     4 1   
     3     1     5 1   
     4     1    22 1   
     5     2     3 1   
     6     2    18 1   
     7     2    23 1   
     8     3     7 2   
     9     3    13 1   
    10     4    24 1   
    11     4    25 1   
    12     5     6 1   
    13     5    41 1   
    14     7     8 1   
    15     7    26 1   
    16     8     9 1   
    17     8    12 1   
    18     9    10 1   
    19     9    11 1   
    20     9    19 1   
    21    10    27 1   
    22    10    28 1   
    23    10    29 1   
    24    11    30 1   
    25    11    31 1   
    26    11    32 1   
    27    12    13 ar  
    28    12    17 ar  
    29    13    14 ar  
    30    14    15 ar  
    31    14    33 1   
    32    15    16 ar  
    33    15    34 1   
    34    16    17 ar  
    35    16    35 1   
    36    17    36 1   
    37    18    37 1   
    38    19    20 1   
    39    19    21 1   
    40    19    38 1   
    41    20    21 1   
    42    20    39 1   
    43    20    40 1   
@<TRIPOS>SUBSTRUCTURE
     1 54C         1 TEMP              0 ****  ****    0 ROOT
