@<TRIPOS>MOLECULE
54D
   15    15     1     0     0
SMALL
abcg2


@<TRIPOS>ATOM
      1 O8           1.8230    -1.5890     0.0190 o          1 54D      -0.479000
      2 C6           1.2430    -0.5310    -0.0010 c          1 54D       0.636700
      3 O7           1.8390     0.6520    -0.0230 os         1 54D      -0.446100
      4 C9           3.2680     0.6750    -0.0230 c3         1 54D       0.155900
      5 C2          -0.2130    -0.3980    -0.0040 cc         1 54D      -0.299600
      6 S3          -0.9980     1.1330    -0.0260 ss         1 54D       0.293000
      7 C4          -2.5360     0.3970    -0.0190 cc         1 54D      -0.243000
      8 C5          -2.4550    -0.9670    -0.0010 cd         1 54D      -0.149000
      9 C1          -1.1180    -1.4240     0.0080 cd         1 54D      -0.058000
     10 H9           3.5480     1.7230    -0.0550 h1         1 54D       0.050033
     11 H9A          3.6710     0.2180     0.8800 h1         1 54D       0.050033
     12 H9B          3.6710     0.1650    -0.8970 h1         1 54D       0.050033
     13 H4          -3.4280     1.0040    -0.0290 h4         1 54D       0.152000
     14 H5          -3.3180    -1.6160     0.0040 ha         1 54D       0.139000
     15 H1          -0.8340    -2.4670     0.0210 ha         1 54D       0.151000
@<TRIPOS>BOND
     1     1     2 2   
     2     2     3 1   
     3     2     5 1   
     4     3     4 1   
     5     4    10 1   
     6     4    11 1   
     7     4    12 1   
     8     5     6 1   
     9     5     9 2   
    10     6     7 1   
    11     7     8 2   
    12     7    13 1   
    13     8     9 1   
    14     8    14 1   
    15     9    15 1   
@<TRIPOS>SUBSTRUCTURE
     1 54D         1 TEMP              0 ****  ****    0 ROOT
