@<TRIPOS>MOLECULE
54D
   15    15     1     0     0
SMALL
No Charge or Current Charge


@<TRIPOS>ATOM
      1 O8           1.7970    -1.5850     0.0150 o          1 54D      -0.479000
      2 C6           1.2260    -0.5030    -0.0040 c          1 54D       0.636700
      3 O7           1.8870     0.6980    -0.0240 os         1 54D      -0.446100
      4 C9           3.3260     0.6830    -0.0230 c3         1 54D       0.155900
      5 C2          -0.2380    -0.3660    -0.0070 cc         1 54D      -0.299600
      6 S3          -1.0600     1.1870    -0.0350 ss         1 54D       0.293000
      7 C4          -2.6270     0.3790    -0.0220 cc         1 54D      -0.243000
      8 C5          -2.4820    -0.9870     0.0020 cd         1 54D      -0.149000
      9 C1          -1.1270    -1.4140     0.0100 cd         1 54D      -0.058000
     10 H9           3.7190     1.7070    -0.0400 h1         1 54D       0.050033
     11 H9A          3.7120     0.1860     0.8770 h1         1 54D       0.050033
     12 H9B          3.7140     0.1560    -0.9040 h1         1 54D       0.050033
     13 H4          -3.5320     0.9730    -0.0330 h4         1 54D       0.152000
     14 H5          -3.3220    -1.6760     0.0130 ha         1 54D       0.139000
     15 H1          -0.8290    -2.4600     0.0280 ha         1 54D       0.151000
@<TRIPOS>BOND
     1     1     2 2   
     2     2     3 1   
     3     2     5 1   
     4     3     4 1   
     5     4    10 1   
     6     4    11 1   
     7     4    12 1   
     8     5     6 1   
     9     5     9 2   
    10     6     7 1   
    11     7     8 2   
    12     7    13 1   
    13     8     9 1   
    14     8    14 1   
    15     9    15 1   
@<TRIPOS>SUBSTRUCTURE
     1 54D         1 TEMP              0 ****  ****    0 ROOT
