@<TRIPOS>MOLECULE
54E
   27    28     1     0     0
SMALL
abcg2


@<TRIPOS>ATOM
      1 CL           0.0390     2.0010     1.0480 cl         1 54E      -0.203000
      2 C3          -0.6990     0.6030     0.3260 ca         1 54E       0.129000
      3 C2          -2.0840     0.5690     0.2620 ca         1 54E      -0.085000
      4 C4           0.0910    -0.4510    -0.1280 cp         1 54E      -0.028000
      5 C5          -0.5810    -1.5620    -0.6400 ca         1 54E      -0.095000
      6 C6          -1.9620    -1.6120    -0.7030 ca         1 54E      -0.114000
      7 C1          -2.7340    -0.5410    -0.2620 ca         1 54E      -0.075300
      8 C           -4.2370    -0.5920    -0.3770 c3         1 54E       0.198100
      9 N           -4.8990     0.3420     0.5120 n8         1 54E      -1.001200
     10 C7           1.5690    -0.4500    -0.0730 cp         1 54E      -0.039000
     11 C12          2.3170     0.5220    -0.7380 ca         1 54E      -0.090000
     12 C11          3.7030     0.4850    -0.7100 ca         1 54E      -0.113500
     13 C10          4.3630    -0.5210    -0.0150 ca         1 54E      -0.104000
     14 C9           3.6270    -1.4940     0.6460 ca         1 54E      -0.113500
     15 C8           2.2390    -1.4600     0.6150 ca         1 54E      -0.090000
     16 H1          -2.6640     1.4040     0.6310 ha         1 54E       0.149000
     17 H2          -0.0000    -2.4010    -1.0030 ha         1 54E       0.120000
     18 H3          -2.4440    -2.4950    -1.1050 ha         1 54E       0.113000
     19 H4          -4.5070    -0.3250    -1.4030 h1         1 54E       0.037700
     20 H5          -4.5560    -1.6350    -0.2480 h1         1 54E       0.037700
     21 H6          -5.8810     0.3890     0.2750 hn         1 54E       0.399500
     22 H7          -4.8560    -0.0010     1.4640 hn         1 54E       0.399500
     23 H9           1.8150     1.3040    -1.2930 ha         1 54E       0.116500
     24 H10          4.2700     1.2420    -1.2370 ha         1 54E       0.112500
     25 H11          5.4450    -0.5470     0.0080 ha         1 54E       0.112000
     26 H12          4.1310    -2.2830     1.1890 ha         1 54E       0.112500
     27 H13          1.6710    -2.2200     1.1360 ha         1 54E       0.116500
@<TRIPOS>BOND
     1     1     2 1   
     2     2     3 ar  
     3     2     4 ar  
     4     3     7 ar  
     5     3    16 1   
     6     4     5 ar  
     7     4    10 1   
     8     5     6 ar  
     9     5    17 1   
    10     6     7 ar  
    11     6    18 1   
    12     7     8 1   
    13     8     9 1   
    14     8    19 1   
    15     8    20 1   
    16     9    21 1   
    17     9    22 1   
    18    10    11 ar  
    19    10    15 ar  
    20    11    12 ar  
    21    11    23 1   
    22    12    13 ar  
    23    12    24 1   
    24    13    14 ar  
    25    13    25 1   
    26    14    15 ar  
    27    14    26 1   
    28    15    27 1   
@<TRIPOS>SUBSTRUCTURE
     1 54E         1 TEMP              0 ****  ****    0 ROOT
