@<TRIPOS>MOLECULE
54E
   27    28     1     0     0
SMALL
No Charge or Current Charge


@<TRIPOS>ATOM
      1 Cl           0.1440     2.3260     0.5460 cl         1 54E      -0.203000
      2 C3          -0.6530     0.8230     0.0740 ca         1 54E       0.129000
      3 C2          -2.0560     0.8340    -0.0200 ca         1 54E      -0.085000
      4 C4           0.0790    -0.3730    -0.1650 cp         1 54E      -0.028000
      5 C5          -0.6500    -1.5450    -0.4840 ca         1 54E      -0.095000
      6 C6          -2.0510    -1.5280    -0.5780 ca         1 54E      -0.114000
      7 C1          -2.7640    -0.3370    -0.3490 ca         1 54E      -0.075300
      8 C           -4.2840    -0.3120    -0.4530 c3         1 54E       0.198100
      9 N           -4.9160    -0.3450     0.8790 n8         1 54E      -1.001200
     10 C7           1.5700    -0.4350    -0.0810 cp         1 54E      -0.039000
     11 C12          2.3900     0.4500    -0.8240 ca         1 54E      -0.090000
     12 C11          3.7920     0.3710    -0.7510 ca         1 54E      -0.113500
     13 C10          4.4000    -0.6000     0.0610 ca         1 54E      -0.104000
     14 C9           3.6050    -1.4940     0.7960 ca         1 54E      -0.113500
     15 C8           2.2040    -1.4150     0.7220 ca         1 54E      -0.090000
     16 H1          -2.5980     1.7560     0.1730 ha         1 54E       0.149000
     17 H2          -0.1170    -2.4740    -0.6710 ha         1 54E       0.120000
     18 H3          -2.5830    -2.4440    -0.8300 ha         1 54E       0.113000
     19 H4          -4.6030     0.6010    -0.9760 h1         1 54E       0.037700
     20 H5          -4.6330    -1.1770    -1.0340 h1         1 54E       0.037700
     21 H6          -5.9340    -0.4160     0.7610 hn         1 54E       0.399500
     22 H7          -4.6630    -1.2270     1.3390 hn         1 54E       0.399500
     23 H9           1.9330     1.1970    -1.4690 ha         1 54E       0.116500
     24 H10          4.4060     1.0600    -1.3270 ha         1 54E       0.112500
     25 H11          5.4850    -0.6610     0.1180 ha         1 54E       0.112000
     26 H12          4.0740    -2.2500     1.4230 ha         1 54E       0.112500
     27 H13          1.5990    -2.1130     1.2970 ha         1 54E       0.116500
@<TRIPOS>BOND
     1     1     2 1   
     2     2     3 ar  
     3     2     4 ar  
     4     3     7 ar  
     5     3    16 1   
     6     4     5 ar  
     7     4    10 1   
     8     5     6 ar  
     9     5    17 1   
    10     6     7 ar  
    11     6    18 1   
    12     7     8 1   
    13     8     9 1   
    14     8    19 1   
    15     8    20 1   
    16     9    21 1   
    17     9    22 1   
    18    10    11 ar  
    19    10    15 ar  
    20    11    12 ar  
    21    11    23 1   
    22    12    13 ar  
    23    12    24 1   
    24    13    14 ar  
    25    13    25 1   
    26    14    15 ar  
    27    14    26 1   
    28    15    27 1   
@<TRIPOS>SUBSTRUCTURE
     1 54E         1 TEMP              0 ****  ****    0 ROOT
