@<TRIPOS>MOLECULE
54F
   24    25     1     0     0
SMALL
No Charge or Current Charge


@<TRIPOS>ATOM
      1 N1           1.6740    -0.7920    -0.8190 nb         1 54F      -0.731000
      2 C2           1.6250    -0.0930     0.3380 ca         1 54F       0.583300
      3 C3           2.7460     0.5610     0.8750 ca         1 54F      -0.182000
      4 C4           3.9680     0.5190     0.1860 ca         1 54F      -0.049000
      5 C5           4.0120    -0.1940    -1.0200 ca         1 54F      -0.203000
      6 C6           2.8500    -0.8330    -1.4830 ca         1 54F       0.375900
      7 C9          -3.1210    -0.6550     0.4450 ca         1 54F       0.302000
      8 C10         -1.8410    -0.7250     1.0120 ca         1 54F      -0.179000
      9 C11         -0.7860     0.0170     0.4600 ca         1 54F       0.154100
     10 C12         -1.0190     0.8550    -0.6480 ca         1 54F      -0.152000
     11 C13         -2.3020     0.9250    -1.2170 ca         1 54F      -0.063000
     12 C14         -3.3510     0.1660    -0.6690 ca         1 54F      -0.181000
     13 OAK          0.4520    -0.0500     1.0540 os         1 54F      -0.379400
     14 H3           2.6580     1.0950     1.8160 ha         1 54F       0.138000
     15 H4           4.8510     1.0210     0.5770 ha         1 54F       0.120000
     16 H5           4.9320    -0.2590    -1.5940 ha         1 54F       0.126000
     17 H6           2.8610    -1.3960    -2.4160 h4         1 54F       0.020100
     18 HN8         -4.0210    -1.8660     1.8660 hn         1 54F       0.450000
     19 HN8A        -5.1020    -1.2270     0.6590 hn         1 54F       0.450000
     20 H10         -1.6590    -1.3560     1.8760 ha         1 54F       0.124000
     21 H12         -0.2120     1.4510    -1.0660 ha         1 54F       0.126000
     22 H13         -2.4830     1.5680    -2.0760 ha         1 54F       0.112000
     23 H14         -4.3420     0.2220    -1.1110 ha         1 54F       0.112000
     24 N8          -4.1480    -1.3850     0.9780 nv         1 54F      -1.075000
@<TRIPOS>BOND
     1     1     2 ar  
     2     1     6 ar  
     3     2     3 ar  
     4     2    13 1   
     5     3     4 ar  
     6     3    14 1   
     7     4     5 ar  
     8     4    15 1   
     9     5     6 ar  
    10     5    16 1   
    11     6    17 1   
    12     7     8 ar  
    13     7    12 ar  
    14     7    24 1   
    15     8     9 ar  
    16     8    20 1   
    17     9    10 ar  
    18     9    13 1   
    19    10    11 ar  
    20    10    21 1   
    21    11    12 ar  
    22    11    22 1   
    23    12    23 1   
    24    18    24 1   
    25    19    24 1   
@<TRIPOS>SUBSTRUCTURE
     1 54F         1 TEMP              0 ****  ****    0 ROOT
