@<TRIPOS>MOLECULE
54F
   24    25     1     0     0
SMALL
abcg2


@<TRIPOS>ATOM
      1 N1           1.4250    -0.4460    -0.7700 nb         1 54F      -0.731000
      2 C2           1.5380     0.3060     0.2990 ca         1 54F       0.583300
      3 C3           2.7550     0.6250     0.9060 ca         1 54F      -0.182000
      4 C4           3.9010     0.1120     0.3350 ca         1 54F      -0.049000
      5 C5           3.8030    -0.6860    -0.8030 ca         1 54F      -0.203000
      6 C6           2.5430    -0.9310    -1.3110 ca         1 54F       0.375900
      7 C9          -2.8270    -0.7560     0.3120 ca         1 54F       0.302000
      8 C10         -1.5430    -0.5030     0.8080 ca         1 54F      -0.179000
      9 C11         -0.8030     0.5510     0.3050 ca         1 54F       0.154100
     10 C12         -1.2890     1.3800    -0.6940 ca         1 54F      -0.152000
     11 C13         -2.5640     1.1260    -1.1830 ca         1 54F      -0.063000
     12 C14         -3.3270     0.0790    -0.6970 ca         1 54F      -0.181000
     13 OAK          0.4260     0.8160     0.8710 os         1 54F      -0.379400
     14 H3           2.7880     1.2490     1.7890 ha         1 54F       0.138000
     15 H4           4.8660     0.3300     0.7730 ha         1 54F       0.120000
     16 H5           4.6790    -1.1020    -1.2790 ha         1 54F       0.126000
     17 H6           2.4160    -1.5480    -2.1930 h4         1 54F       0.020100
     18 HN8         -3.3240    -2.1630     1.6910 hn         1 54F       0.450000
     19 HN8A        -4.5500    -1.7830     0.6220 hn         1 54F       0.450000
     20 H10         -1.1280    -1.1250     1.5930 ha         1 54F       0.124000
     21 H12         -0.6950     2.2020    -1.0710 ha         1 54F       0.126000
     22 H13         -2.9730     1.7610    -1.9580 ha         1 54F       0.112000
     23 H14         -4.3210    -0.0950    -1.0920 ha         1 54F       0.112000
     24 N8          -3.5540    -1.8310     0.7680 nv         1 54F      -1.075000
@<TRIPOS>BOND
     1     1     2 ar  
     2     1     6 ar  
     3     2     3 ar  
     4     2    13 1   
     5     3     4 ar  
     6     3    14 1   
     7     4     5 ar  
     8     4    15 1   
     9     5     6 ar  
    10     5    16 1   
    11     6    17 1   
    12     7     8 ar  
    13     7    12 ar  
    14     7    24 1   
    15     8     9 ar  
    16     8    20 1   
    17     9    10 ar  
    18     9    13 1   
    19    10    11 ar  
    20    10    21 1   
    21    11    12 ar  
    22    11    22 1   
    23    12    23 1   
    24    18    24 1   
    25    19    24 1   
@<TRIPOS>SUBSTRUCTURE
     1 54F         1 TEMP              0 ****  ****    0 ROOT
