@<TRIPOS>MOLECULE
54G
   18    18     1     0     0
SMALL
abcg2


@<TRIPOS>ATOM
      1 C2           2.2270     0.9040    -0.0420 ca         1 54G      -0.078000
      2 C7           0.7290    -0.9420     0.0650 ca         1 54G      -0.027000
      3 C6          -1.7730    -0.6220     0.1780 c          1 54G       0.723600
      4 C5          -0.3690    -0.0830     0.1000 ca         1 54G      -0.268600
      5 C4          -0.1490     1.3050     0.0610 ca         1 54G       0.208100
      6 C3           1.1630     1.7860    -0.0100 ca         1 54G      -0.214000
      7 O1          -1.9540    -1.8420     0.2160 o          1 54G      -0.702500
      8 O2          -2.6960     0.2530     0.1990 o          1 54G      -0.702500
      9 O           -1.1680     2.1650     0.0900 oh         1 54G      -0.633100
     10 C1           2.0340    -0.4800    -0.0060 ca         1 54G      -0.184300
     11 C            3.2050    -1.4210    -0.0440 c3         1 54G      -0.018800
     12 H1           3.2350     1.3010    -0.0970 ha         1 54G       0.078000
     13 H2           0.5450    -2.0100     0.0960 ha         1 54G       0.117000
     14 H3           1.3350     2.8550    -0.0380 ha         1 54G       0.099000
     15 H5          -1.9870     1.5500     0.1400 ho         1 54G       0.547000
     16 H6           3.7830    -1.3110    -0.9640 hc         1 54G       0.018367
     17 H7           3.8930    -1.2440     0.7860 hc         1 54G       0.018367
     18 H8           2.8810    -2.4590     0.0160 hc         1 54G       0.018367
@<TRIPOS>BOND
     1     1     6 ar  
     2     1    10 ar  
     3     1    12 1   
     4     2     4 ar  
     5     2    10 ar  
     6     2    13 1   
     7     3     4 1   
     8     3     7 1   
     9     3     8 1   
    10     4     5 ar  
    11     5     6 ar  
    12     5     9 1   
    13     6    14 1   
    14     9    15 1   
    15    10    11 1   
    16    11    16 1   
    17    11    17 1   
    18    11    18 1   
@<TRIPOS>SUBSTRUCTURE
     1 54G         1 TEMP              0 ****  ****    0 ROOT
