@<TRIPOS>MOLECULE
54G
   18    18     1     0     0
SMALL
No Charge or Current Charge


@<TRIPOS>ATOM
      1 C2           2.2590     0.9220     0.0200 ca         1 54G      -0.078000
      2 C7           0.7150    -0.9590     0.0300 ca         1 54G      -0.027000
      3 C6          -1.8020    -0.6320     0.1020 c          1 54G       0.723600
      4 C5          -0.3920    -0.0790     0.0740 ca         1 54G      -0.268600
      5 C4          -0.1410     1.3110     0.0910 ca         1 54G       0.208100
      6 C3           1.1710     1.8050     0.0640 ca         1 54G      -0.214000
      7 O1          -1.9580    -1.8430     0.0850 o          1 54G      -0.702500
      8 O2          -2.7310     0.1640     0.1400 o          1 54G      -0.702500
      9 O           -1.1700     2.1940     0.1340 oh         1 54G      -0.633100
     10 C1           2.0340    -0.4650     0.0050 ca         1 54G      -0.184300
     11 C            3.2100    -1.4300    -0.0470 c3         1 54G      -0.018800
     12 H1           3.2730     1.3150    -0.0030 ha         1 54G       0.078000
     13 H2           0.5570    -2.0360     0.0130 ha         1 54G       0.117000
     14 H3           1.3460     2.8770     0.0760 ha         1 54G       0.099000
     15 H5          -1.9840     1.6110     0.1450 ho         1 54G       0.547000
     16 H6           3.4340    -1.7180    -1.0810 hc         1 54G       0.018367
     17 H7           4.1160    -0.9840     0.3810 hc         1 54G       0.018367
     18 H8           2.9980    -2.3470     0.5170 hc         1 54G       0.018367
@<TRIPOS>BOND
     1     1     6 ar  
     2     1    10 ar  
     3     1    12 1   
     4     2     4 ar  
     5     2    10 ar  
     6     2    13 1   
     7     3     4 1   
     8     3     7 1   
     9     3     8 1   
    10     4     5 ar  
    11     5     6 ar  
    12     5     9 1   
    13     6    14 1   
    14     9    15 1   
    15    10    11 1   
    16    11    16 1   
    17    11    17 1   
    18    11    18 1   
@<TRIPOS>SUBSTRUCTURE
     1 54G         1 TEMP              0 ****  ****    0 ROOT
