@<TRIPOS>MOLECULE
54H
   53    55     1     0     0
SMALL
No Charge or Current Charge


@<TRIPOS>ATOM
      1 C4           2.6690    -0.3520    -0.4690 ca         1 54H       0.137500
      2 C5           2.7520    -1.3720    -1.3820 ca         1 54H      -0.099600
      3 C6           3.4390    -2.5450    -1.0070 ca         1 54H       0.445900
      4 C8           1.6260     0.1750    -2.3670 cc         1 54H       0.415700
      5 N1           3.9950    -2.6650     0.2090 nb         1 54H      -0.300000
      6 N3           3.2220    -0.4350     0.7570 nb         1 54H      -0.212000
      7 CB          -1.1080    -2.9930     0.9250 c3         1 54H      -0.101700
      8 CG1         -0.2330    -1.7180     0.8340 c3         1 54H      -0.089100
      9 CA          -2.4340    -2.8570     0.1080 c3         1 54H       0.092500
     10 N           -3.2930    -4.0770     0.2910 n8         1 54H      -0.987200
     11 C           -3.1690    -1.4900     0.3830 c          1 54H       0.636100
     12 O           -3.5840    -1.1830     1.4920 o          1 54H      -0.526100
     13 NAP         -3.3100    -0.6900    -0.7080 ns         1 54H      -0.619300
     14 SBD         -3.9270     0.8470    -0.7650 s6         1 54H       1.435500
     15 OAF         -3.9640     1.2560    -2.1720 o          1 54H      -0.531000
     16 OAG         -5.1240     0.9170     0.0800 o          1 54H      -0.531000
     17 O5          -2.6930     1.6190    -0.0020 os         1 54H      -0.542700
     18 C7          -0.5600     2.7760     0.0950 c5         1 54H       0.172300
     19 O4           0.4260     1.7430     0.3690 os         1 54H      -0.421000
     20 C3           0.2720     3.9350    -0.5490 c5         1 54H       0.107300
     21 O3           1.0300     4.6870     0.4110 oh         1 54H      -0.698000
     22 C2           1.2120     3.1050    -1.4660 c5         1 54H       0.077300
     23 O2           2.3480     3.8770    -1.9010 oh         1 54H      -0.684000
     24 C1           1.5750     1.9220    -0.4970 c5         1 54H       0.319300
     25 N9           1.9450     0.6310    -1.0820 na         1 54H      -0.291300
     26 N7           2.1050    -1.0650    -2.5830 nd         1 54H      -0.557100
     27 C10          3.8600    -1.5980     1.0340 ca         1 54H       0.180900
     28 N6           3.5740    -3.6130    -1.8370 nv         1 54H      -1.061900
     29 H8           1.0520     0.7600    -3.0750 h5         1 54H       0.076800
     30 HG2          0.6600    -4.2810     1.0840 hc         1 54H       0.035367
     31 HG2A        -0.8150    -5.1650     0.6820 hc         1 54H       0.035367
     32 HG2B        -0.0050    -4.1790    -0.5580 hc         1 54H       0.035367
     33 HG1          0.7140    -1.8600     1.3680 hc         1 54H       0.035367
     34 HG1A        -0.0060    -1.4790    -0.2110 hc         1 54H       0.035367
     35 HG1B        -0.7310    -0.8510     1.2840 hc         1 54H       0.035367
     36 HA          -2.1460    -2.8370    -0.9530 h1         1 54H       0.063700
     37 HN          -2.7150    -4.9170     0.1740 hn         1 54H       0.412500
     38 HNA         -3.6000    -4.1310     1.2700 hn         1 54H       0.412500
     39 HNAP        -2.9640    -0.9830    -1.6040 hn         1 54H       0.345500
     40 H4          -1.0260     3.1010     1.0340 h1         1 54H       0.112700
     41 H3          -0.3670     4.6090    -1.1360 h1         1 54H       0.052700
     42 HO3          1.8730     4.9100    -0.0560 ho         1 54H       0.527000
     43 H2           0.6510     2.7390    -2.3370 h1         1 54H       0.047700
     44 HO2          2.1370     4.2540    -2.7900 ho         1 54H       0.514000
     45 H1           2.4310     2.2250     0.1200 h2         1 54H       0.122700
     46 H6           4.3100    -1.6840     2.0210 h5         1 54H       0.047100
     47 HN6          2.9850    -3.6230    -2.6660 hn         1 54H       0.503500
     48 HN6A         3.8090    -4.5140    -1.4310 hn         1 54H       0.503500
     49 C9          -1.6700     2.2010    -0.8310 c3         1 54H       0.178600
     50 HB          -1.3750    -3.1180     1.9830 hc         1 54H       0.081700
     51 CG2         -0.2710    -4.2300     0.5060 c3         1 54H      -0.089100
     52 H5          -1.2330     1.4570    -1.5120 h1         1 54H       0.052200
     53 H5'A        -2.0890     3.0180    -1.4340 h1         1 54H       0.052200
@<TRIPOS>BOND
     1     1     2 ar  
     2     1     6 ar  
     3     1    25 1   
     4     2     3 ar  
     5     2    26 1   
     6     3     5 ar  
     7     3    28 1   
     8     4    25 1   
     9     4    26 2   
    10     4    29 1   
    11     5    27 ar  
    12     6    27 ar  
    13     7     8 1   
    14     7     9 1   
    15     7    50 1   
    16     7    51 1   
    17     8    33 1   
    18     8    34 1   
    19     8    35 1   
    20     9    10 1   
    21     9    11 1   
    22     9    36 1   
    23    10    37 1   
    24    10    38 1   
    25    11    12 2   
    26    11    13 1   
    27    13    14 1   
    28    13    39 1   
    29    14    15 2   
    30    14    16 2   
    31    14    17 1   
    32    17    49 1   
    33    18    19 1   
    34    18    20 1   
    35    18    40 1   
    36    18    49 1   
    37    19    24 1   
    38    20    21 1   
    39    20    22 1   
    40    20    41 1   
    41    21    42 1   
    42    22    23 1   
    43    22    24 1   
    44    22    43 1   
    45    23    44 1   
    46    24    25 1   
    47    24    45 1   
    48    27    46 1   
    49    28    47 1   
    50    28    48 1   
    51    30    51 1   
    52    31    51 1   
    53    32    51 1   
    54    49    52 1   
    55    49    53 1   
@<TRIPOS>SUBSTRUCTURE
     1 54H         1 TEMP              0 ****  ****    0 ROOT
