@<TRIPOS>MOLECULE
54H
   53    55     1     0     0
SMALL
bcc


@<TRIPOS>ATOM
      1 C4           3.3140     0.0630     0.3280 ca         1 54H       0.465800
      2 C5           3.2380    -1.3140     0.4750 ca         1 54H      -0.230200
      3 C6           4.4630    -1.9990     0.5660 ca         1 54H       0.774200
      4 C8           1.2420    -0.6350     0.4030 cc         1 54H       0.415700
      5 N1           5.5890    -1.2810     0.5000 nb         1 54H      -0.826000
      6 N3           4.4250     0.7920     0.2630 nb         1 54H      -0.738000
      7 CB          -1.4690    -2.8290    -1.3300 c3         1 54H      -0.101700
      8 CG1         -1.3050    -1.5790    -2.1890 c3         1 54H      -0.089100
      9 CA          -2.7660    -2.7700    -0.4960 c3         1 54H       0.092500
     10 N           -3.0660    -3.9340     0.3150 n8         1 54H      -0.876800
     11 C           -2.6990    -1.5910     0.4630 c          1 54H       0.703100
     12 O           -1.9540    -1.5610     1.4140 o          1 54H      -0.526100
     13 NAP         -3.5310    -0.5340     0.1630 ns         1 54H      -0.686300
     14 SBD         -3.7050     0.8160     1.1300 s6         1 54H       1.577100
     15 OAF         -4.6610     1.6400     0.4370 o          1 54H      -0.601800
     16 OAG         -3.8950     0.4350     2.5000 o          1 54H      -0.601800
     17 O5          -2.2660     1.4800     1.1000 os         1 54H      -0.519500
     18 C7          -0.5320     2.8470     0.2030 c5         1 54H       0.149100
     19 O4           0.4250     2.0440     0.8920 os         1 54H      -0.374600
     20 C3           0.1510     3.3230    -1.0760 c5         1 54H       0.084100
     21 O3           0.8330     4.5150    -0.7980 oh         1 54H      -0.575800
     22 C2           1.1300     2.1710    -1.3260 c5         1 54H       0.054100
     23 O2           2.2390     2.4940    -2.1030 oh         1 54H      -0.561800
     24 C1           1.5640     1.8430     0.1020 c5         1 54H       0.266800
     25 N9           2.0170     0.4860     0.2810 na         1 54H      -0.262000
     26 N7           1.9330    -1.7290     0.5220 nd         1 54H      -0.557100
     27 C10          5.5080     0.0400     0.3580 ca         1 54H       0.706900
     28 N6           4.5390    -3.3250     0.7010 nv         1 54H      -0.951500
     29 H8           0.1660    -0.5800     0.4310 h5         1 54H       0.076800
     30 HG2         -0.5520    -4.0900    -2.8250 hc         1 54H       0.035367
     31 HG2A        -1.4700    -4.9940    -1.6340 hc         1 54H       0.035367
     32 HG2B        -2.3130    -4.0810    -2.8910 hc         1 54H       0.035367
     33 HG1         -0.3700    -1.6130    -2.7490 hc         1 54H       0.035367
     34 HG1A        -2.1210    -1.4850    -2.9090 hc         1 54H       0.035367
     35 HG1B        -1.2870    -0.6590    -1.6030 hc         1 54H       0.035367
     36 HA          -3.6040    -2.6310    -1.1880 h1         1 54H       0.063700
     37 HN          -3.2760    -4.7190    -0.2880 hn         1 54H       0.357300
     38 HNA         -2.2550    -4.2010     0.8600 hn         1 54H       0.357300
     39 HNAP        -4.1650    -0.5870    -0.6260 hn         1 54H       0.345500
     40 H4          -0.8080     3.6900     0.8420 h1         1 54H       0.112700
     41 H3          -0.5630     3.4410    -1.9020 h1         1 54H       0.052700
     42 HO3          1.4920     4.6510    -1.4880 ho         1 54H       0.428000
     43 H2           0.5800     1.3150    -1.7400 h1         1 54H       0.047700
     44 HO2          2.0050     2.4110    -3.0330 ho         1 54H       0.415000
     45 H1           2.3920     2.4920     0.4070 h2         1 54H       0.122700
     46 H6           6.4580     0.5630     0.3160 h5         1 54H       0.047100
     47 HN6          3.7110    -3.8700     0.8700 hn         1 54H       0.448300
     48 HN6A         5.4290    -3.7600     0.8730 hn         1 54H       0.448300
     49 C9          -1.7780     2.0510    -0.1270 c3         1 54H       0.155400
     50 HB          -0.6240    -2.8950    -0.6350 hc         1 54H       0.081700
     51 CG2         -1.4560    -4.0710    -2.2150 c3         1 54H      -0.089100
     52 H5          -1.5730     1.2520    -0.8440 h1         1 54H       0.052200
     53 H5'A        -2.5190     2.7210    -0.5650 h1         1 54H       0.052200
@<TRIPOS>BOND
     1     1     2 ar  
     2     1     6 ar  
     3     1    25 1   
     4     2     3 ar  
     5     2    26 1   
     6     3     5 ar  
     7     3    28 1   
     8     4    25 1   
     9     4    26 2   
    10     4    29 1   
    11     5    27 ar  
    12     6    27 ar  
    13     7     8 1   
    14     7     9 1   
    15     7    50 1   
    16     7    51 1   
    17     8    33 1   
    18     8    34 1   
    19     8    35 1   
    20     9    10 1   
    21     9    11 1   
    22     9    36 1   
    23    10    37 1   
    24    10    38 1   
    25    11    12 2   
    26    11    13 1   
    27    13    14 1   
    28    13    39 1   
    29    14    15 2   
    30    14    16 2   
    31    14    17 1   
    32    17    49 1   
    33    18    19 1   
    34    18    20 1   
    35    18    40 1   
    36    18    49 1   
    37    19    24 1   
    38    20    21 1   
    39    20    22 1   
    40    20    41 1   
    41    21    42 1   
    42    22    23 1   
    43    22    24 1   
    44    22    43 1   
    45    23    44 1   
    46    24    25 1   
    47    24    45 1   
    48    27    46 1   
    49    28    47 1   
    50    28    48 1   
    51    30    51 1   
    52    31    51 1   
    53    32    51 1   
    54    49    52 1   
    55    49    53 1   
@<TRIPOS>SUBSTRUCTURE
     1 54H         1 TEMP              0 ****  ****    0 ROOT
