@<TRIPOS>MOLECULE
54I
   11    10     1     0     0
SMALL
abcg2


@<TRIPOS>ATOM
      1 O1         -18.6120   -26.7370    15.9870 o          1 54I      -0.727500
      2 O2         -18.8650   -27.7090    13.9910 o          1 54I      -0.727500
      3 O3         -18.0000   -24.6300    10.7800 oh         1 54I      -0.549000
      4 C1         -18.8290   -26.7320    14.7630 c          1 54I       0.730000
      5 C2         -19.1210   -25.3440    14.1330 c3         1 54I      -0.278700
      6 C3         -18.9080   -25.3130    12.6630 c2         1 54I       0.448200
      7 N1         -18.0680   -24.5150    12.1510 n2         1 54I      -0.411700
      8 H2         -17.3390   -23.9790    10.5250 ho         1 54I       0.439000
      9 H3         -18.5270   -24.5690    14.6200 hc         1 54I       0.039200
     10 H5         -19.4920   -25.9950    12.0450 h4         1 54I      -0.001200
     11 H4         -20.1720   -25.1060    14.3400 hc         1 54I       0.039200
@<TRIPOS>BOND
     1     1     4 1   
     2     2     4 1   
     3     3     7 1   
     4     3     8 1   
     5     4     5 1   
     6     5     6 1   
     7     5     9 1   
     8     5    11 1   
     9     6     7 2   
    10     6    10 1   
@<TRIPOS>SUBSTRUCTURE
     1 54I         1 TEMP              0 ****  ****    0 ROOT
