@<TRIPOS>MOLECULE
54I
   11    10     1     0     0
SMALL
No Charge or Current Charge


@<TRIPOS>ATOM
      1 O1         -18.1360   -27.0680    15.3460 o          1 54I      -0.727500
      2 O2         -20.0430   -27.4980    14.4450 o          1 54I      -0.727500
      3 O3         -17.7790   -24.5690    10.8300 oh         1 54I      -0.549000
      4 C1         -19.1380   -26.7340    14.7360 c          1 54I       0.730000
      5 C2         -19.1800   -25.3340    14.1590 c3         1 54I      -0.278700
      6 C3         -18.5280   -25.3910    12.8070 c2         1 54I       0.448200
      7 N1         -18.4150   -24.3340    12.0630 n2         1 54I      -0.411700
      8 H2         -17.7600   -23.6930    10.3720 ho         1 54I       0.439000
      9 H3         -18.5880   -24.6440    14.7710 hc         1 54I       0.039200
     10 H5         -18.1510   -26.3540    12.4680 h4         1 54I      -0.001200
     11 H4         -20.2160   -25.0110    14.0020 hc         1 54I       0.039200
@<TRIPOS>BOND
     1     1     4 1   
     2     2     4 1   
     3     3     7 1   
     4     3     8 1   
     5     4     5 1   
     6     5     6 1   
     7     5     9 1   
     8     5    11 1   
     9     6     7 2   
    10     6    10 1   
@<TRIPOS>SUBSTRUCTURE
     1 54I         1 TEMP              0 ****  ****    0 ROOT
