@<TRIPOS>MOLECULE
54J
   73    77     1     0     0
SMALL
abcg2


@<TRIPOS>ATOM
      1 N3          15.9050   -81.8410    93.5200 n3         1 54J      -0.726600
      2 C4          17.0110   -81.3350    92.7080 c6         1 54J       0.165800
      3 C5          17.3780   -79.9080    93.0950 c6         1 54J      -0.087400
      4 C6          16.1600   -78.9920    92.9700 c6         1 54J       0.231500
      5 C7          14.9950   -79.5580    93.7790 c6         1 54J      -0.087400
      6 C8          14.7210   -80.9980    93.3540 c6         1 54J       0.165800
      7 C13         17.5390   -74.5130    91.5700 ca         1 54J      -0.030000
      8 C17         17.0230   -76.5190    88.6070 cc         1 54J      -0.203000
      9 C21         15.8970   -79.9470    86.5610 ca         1 54J       0.103900
     10 C24         17.0490   -76.3160    90.0390 ca         1 54J       0.419800
     11 C26         18.0610   -73.0620    88.8010 ca         1 54J      -0.051200
     12 C1          14.7240   -83.9270    94.2280 c3         1 54J      -0.089100
     13 C2          15.6350   -83.2460    93.2150 c3         1 54J       0.167800
     14 N9          16.4650   -77.5950    93.2910 nh         1 54J      -0.788300
     15 C11         16.8040   -76.7250    92.2830 ca         1 54J       0.619900
     16 C12         17.2090   -75.3890    92.5840 ca         1 54J      -0.206000
     17 C14         17.4690   -74.9930    90.2680 ca         1 54J      -0.138200
     18 N15         17.7080   -74.4030    89.0280 na         1 54J       0.011500
     19 C16         17.4290   -75.3280    88.0450 cd         1 54J      -0.099100
     20 C18         16.6300   -77.7240    87.8910 ca         1 54J      -0.096800
     21 C19         16.2730   -77.7100    86.5370 ca         1 54J       0.106400
     22 N20         15.9180   -78.8060    85.8700 nb         1 54J      -0.175500
     23 N22         16.2000   -80.0840    87.8490 nb         1 54J      -0.175500
     24 C23         16.5650   -78.9810    88.5060 ca         1 54J       0.106400
     25 N25         16.7290   -77.1670    91.0210 nb         1 54J      -0.734000
     26 C27         17.2930   -72.2330    87.9810 ca         1 54J       0.187000
     27 F28         16.1950   -72.7520    87.4010 f          1 54J      -0.157000
     28 C29         17.6060   -70.9080    87.7630 ca         1 54J      -0.139000
     29 C30         18.7140   -70.3660    88.3990 ca         1 54J      -0.063000
     30 C31         19.5250   -71.1520    89.2110 ca         1 54J       0.216000
     31 N32         20.6700   -70.6030    89.8490 nu         1 54J      -0.901100
     32 S33         22.1180   -70.4810    89.0240 s6         1 54J       1.195100
     33 O34         23.1270   -70.3850    90.0560 o          1 54J      -0.531000
     34 O35         22.2290   -71.5310    88.0350 o          1 54J      -0.531000
     35 C36         21.9800   -68.9210    88.1760 c3         1 54J      -0.315400
     36 C37         23.2420   -68.5900    87.3850 c3         1 54J      -0.048400
     37 C38         23.0920   -67.2480    86.6700 c3         1 54J      -0.083100
     38 C39         19.1910   -72.4920    89.3830 ca         1 54J       0.178000
     39 F40         19.9840   -73.2660    90.1410 f          1 54J      -0.151000
     40 H2          16.7520   -81.3640    91.6330 h1         1 54J       0.036200
     41 H3          17.8700   -81.9950    92.8480 h1         1 54J       0.036200
     42 H4          17.7480   -79.8960    94.1250 hc         1 54J       0.051450
     43 H5          18.1800   -79.5460    92.4480 hc         1 54J       0.051450
     44 H6          15.8560   -78.9900    91.9260 h1         1 54J       0.087700
     45 H7          15.2160   -79.5480    94.8490 hc         1 54J       0.051450
     46 H8          14.1000   -78.9530    93.6190 hc         1 54J       0.051450
     47 H9          14.3830   -81.0130    92.3010 h1         1 54J       0.036200
     48 H10         13.9090   -81.4030    93.9570 h1         1 54J       0.036200
     49 H11         16.5860   -78.0970    95.3080 h1         1 54J       0.039033
     50 H12         17.8270   -76.9600    94.7870 h1         1 54J       0.039033
     51 H13         16.1570   -76.4150    95.0220 h1         1 54J       0.039033
     52 H14         17.8360   -73.4980    91.7970 ha         1 54J       0.120000
     53 H15         15.6040   -80.8420    86.0230 h5         1 54J       0.048100
     54 H16         14.6530   -84.9930    94.0010 hc         1 54J       0.036700
     55 H17         15.1250   -83.8170    95.2380 hc         1 54J       0.036700
     56 H18         13.7130   -83.5200    94.2160 hc         1 54J       0.036700
     57 H19         15.2080   -83.3500    92.2020 h1         1 54J       0.030200
     58 H20         16.5980   -83.7610    93.2020 h1         1 54J       0.030200
     59 H21         17.2500   -75.0470    93.6050 ha         1 54J       0.125000
     60 H22         17.5660   -75.0660    87.0100 h4         1 54J       0.225000
     61 H23         16.2670   -76.7800    85.9790 h4         1 54J       0.033100
     62 H24         16.8090   -79.0850    89.5540 h4         1 54J       0.033100
     63 H25         16.9690   -70.3060    87.1300 ha         1 54J       0.149000
     64 H26         18.9500   -69.3190    88.2740 ha         1 54J       0.135000
     65 H27         20.8480   -70.9340    90.7910 hn         1 54J       0.507000
     66 H28         21.7700   -68.1800    88.9480 h1         1 54J       0.096700
     67 H29         21.1130   -69.0060    87.5190 h1         1 54J       0.096700
     68 H30         23.4320   -69.3810    86.6570 hc         1 54J       0.059200
     69 H31         24.0980   -68.5580    88.0620 hc         1 54J       0.059200
     70 H32         23.9950   -67.0130    86.1060 hc         1 54J       0.038033
     71 H33         22.2520   -67.2690    85.9730 hc         1 54J       0.038033
     72 H34         22.9190   -66.4410    87.3850 hc         1 54J       0.038033
     73 C10         16.7770   -77.2430    94.6680 c3         1 54J       0.210100
@<TRIPOS>BOND
     1     1     2 1   
     2     1     6 1   
     3     1    13 1   
     4     2     3 1   
     5     2    40 1   
     6     2    41 1   
     7     3     4 1   
     8     3    42 1   
     9     3    43 1   
    10     4     5 1   
    11     4    14 1   
    12     4    44 1   
    13     5     6 1   
    14     5    45 1   
    15     5    46 1   
    16     6    47 1   
    17     6    48 1   
    18     7    16 ar  
    19     7    17 ar  
    20     7    52 1   
    21     8    10 1   
    22     8    19 2   
    23     8    20 1   
    24     9    22 ar  
    25     9    23 ar  
    26     9    53 1   
    27    10    17 ar  
    28    10    25 ar  
    29    11    18 1   
    30    11    26 ar  
    31    11    38 ar  
    32    12    13 1   
    33    12    54 1   
    34    12    55 1   
    35    12    56 1   
    36    13    57 1   
    37    13    58 1   
    38    14    15 1   
    39    14    73 1   
    40    15    16 ar  
    41    15    25 ar  
    42    16    59 1   
    43    17    18 1   
    44    18    19 1   
    45    19    60 1   
    46    20    21 ar  
    47    20    24 ar  
    48    21    22 ar  
    49    21    61 1   
    50    23    24 ar  
    51    24    62 1   
    52    26    27 1   
    53    26    28 ar  
    54    28    29 ar  
    55    28    63 1   
    56    29    30 ar  
    57    29    64 1   
    58    30    31 1   
    59    30    38 ar  
    60    31    32 1   
    61    31    65 1   
    62    32    33 2   
    63    32    34 2   
    64    32    35 1   
    65    35    36 1   
    66    35    66 1   
    67    35    67 1   
    68    36    37 1   
    69    36    68 1   
    70    36    69 1   
    71    37    70 1   
    72    37    71 1   
    73    37    72 1   
    74    38    39 1   
    75    49    73 1   
    76    50    73 1   
    77    51    73 1   
@<TRIPOS>SUBSTRUCTURE
     1 54J         1 TEMP              0 ****  ****    0 ROOT
