@<TRIPOS>MOLECULE
54J
   73    77     1     0     0
SMALL
No Charge or Current Charge


@<TRIPOS>ATOM
      1 N3          15.8250   -81.8940    93.3450 n3         1 54J      -0.726600
      2 C4          16.8190   -81.2970    92.4080 c6         1 54J       0.165800
      3 C5          17.2560   -79.8850    92.8560 c6         1 54J      -0.087400
      4 C6          16.0220   -78.9630    92.9960 c6         1 54J       0.231500
      5 C7          14.9990   -79.6030    93.9670 c6         1 54J      -0.087400
      6 C8          14.6210   -81.0220    93.4870 c6         1 54J       0.165800
      7 C13         16.5090   -74.1700    91.8200 ca         1 54J      -0.030000
      8 C17         17.0530   -76.0920    88.8390 cc         1 54J      -0.203000
      9 C21         17.7590   -79.4720    86.5030 ca         1 54J       0.103900
     10 C24         16.8100   -75.9630    90.2540 ca         1 54J       0.419800
     11 C26         17.5340   -72.6800    89.2250 ca         1 54J      -0.051200
     12 C1          14.6740   -84.0650    94.0260 c3         1 54J      -0.089100
     13 C2          15.5040   -83.2960    92.9780 c3         1 54J       0.167800
     14 N9          16.4150   -77.5730    93.4000 nh         1 54J      -0.788300
     15 C11         16.5070   -76.5370    92.4430 ca         1 54J       0.619900
     16 C12         16.4000   -75.1700    92.8070 ca         1 54J      -0.206000
     17 C14         16.7240   -74.6240    90.5160 ca         1 54J      -0.138200
     18 N15         16.8530   -73.8920    89.3460 na         1 54J       0.011500
     19 C16         17.1330   -74.8060    88.3050 cd         1 54J      -0.099100
     20 C18         17.3050   -77.2840    88.0210 ca         1 54J      -0.096800
     21 C19         17.0660   -77.2880    86.6290 ca         1 54J       0.106400
     22 N20         17.2900   -78.3790    85.8670 nb         1 54J      -0.175500
     23 N22         18.0250   -79.5810    87.8210 nb         1 54J      -0.175500
     24 C23         17.7970   -78.4870    88.5760 ca         1 54J       0.106400
     25 N25         16.7100   -76.9390    91.1710 nb         1 54J      -0.734000
     26 C27         16.8510   -71.5390    88.7610 ca         1 54J       0.187000
     27 F28         15.5410   -71.6150    88.4280 f          1 54J      -0.157000
     28 C29         17.5130   -70.3080    88.6470 ca         1 54J      -0.139000
     29 C30         18.8730   -70.2040    88.9890 ca         1 54J      -0.063000
     30 C31         19.5830   -71.3330    89.4400 ca         1 54J       0.216000
     31 N32         20.9380   -71.2160    89.7830 nu         1 54J      -0.901100
     32 S33         22.1850   -71.1230    88.6920 s6         1 54J       1.195100
     33 O34         23.3920   -71.0170    89.5110 o          1 54J      -0.531000
     34 O35         21.9970   -72.2630    87.7940 o          1 54J      -0.531000
     35 C36         21.9400   -69.5940    87.7750 c3         1 54J      -0.315400
     36 C37         23.0820   -69.2900    86.7760 c3         1 54J      -0.048400
     37 C38         22.8460   -67.9830    85.9980 c3         1 54J      -0.083100
     38 C39         18.9000   -72.5680    89.5700 ca         1 54J       0.178000
     39 F40         19.5750   -73.6550    90.0230 f          1 54J      -0.151000
     40 H2          16.3960   -81.2360    91.3930 h1         1 54J       0.036200
     41 H3          17.7140   -81.9340    92.3450 h1         1 54J       0.036200
     42 H4          17.7960   -79.9540    93.8100 hc         1 54J       0.051450
     43 H5          17.9580   -79.4680    92.1230 hc         1 54J       0.051450
     44 H6          15.5190   -78.9370    92.0160 h1         1 54J       0.087700
     45 H7          15.4080   -79.6710    94.9830 hc         1 54J       0.051450
     46 H8          14.0970   -78.9800    94.0260 hc         1 54J       0.051450
     47 H9          14.0890   -80.9480    92.5260 h1         1 54J       0.036200
     48 H10         13.9150   -81.4450    94.2150 h1         1 54J       0.036200
     49 H11         17.1910   -78.2380    95.2820 h1         1 54J       0.039033
     50 H12         17.6010   -76.5720    94.8640 h1         1 54J       0.039033
     51 H13         15.9420   -76.9690    95.3890 h1         1 54J       0.039033
     52 H14         16.4260   -73.1120    92.0580 ha         1 54J       0.120000
     53 H15         17.9420   -80.3540    85.8920 h5         1 54J       0.048100
     54 H16         14.5970   -85.1210    93.7420 hc         1 54J       0.036700
     55 H17         15.1490   -84.0090    95.0120 hc         1 54J       0.036700
     56 H18         13.6560   -83.6650    94.1030 hc         1 54J       0.036700
     57 H19         14.9690   -83.3210    92.0190 h1         1 54J       0.030200
     58 H20         16.4400   -83.8530    92.8350 h1         1 54J       0.030200
     59 H21         16.2220   -74.8860    93.8380 ha         1 54J       0.125000
     60 H22         17.3860   -74.4770    87.3020 h4         1 54J       0.225000
     61 H23         16.6800   -76.4110    86.1120 h4         1 54J       0.033100
     62 H24         18.0300   -78.5810    89.6340 h4         1 54J       0.033100
     63 H25         16.9700   -69.4330    88.2980 ha         1 54J       0.149000
     64 H26         19.3710   -69.2410    88.9180 ha         1 54J       0.135000
     65 H27         21.2770   -71.9690    90.3690 hn         1 54J       0.507000
     66 H28         21.8580   -68.8000    88.5250 h1         1 54J       0.096700
     67 H29         20.9890   -69.7040    87.2450 h1         1 54J       0.096700
     68 H30         23.1780   -70.1180    86.0610 hc         1 54J       0.059200
     69 H31         24.0360   -69.2180    87.3140 hc         1 54J       0.059200
     70 H32         23.6720   -67.7980    85.3010 hc         1 54J       0.038033
     71 H33         21.9150   -68.0370    85.4210 hc         1 54J       0.038033
     72 H34         22.7790   -67.1300    86.6850 hc         1 54J       0.038033
     73 C10         16.8040   -77.3260    94.8090 c3         1 54J       0.210100
@<TRIPOS>BOND
     1     1     2 1   
     2     1     6 1   
     3     1    13 1   
     4     2     3 1   
     5     2    40 1   
     6     2    41 1   
     7     3     4 1   
     8     3    42 1   
     9     3    43 1   
    10     4     5 1   
    11     4    14 1   
    12     4    44 1   
    13     5     6 1   
    14     5    45 1   
    15     5    46 1   
    16     6    47 1   
    17     6    48 1   
    18     7    16 ar  
    19     7    17 ar  
    20     7    52 1   
    21     8    10 1   
    22     8    19 2   
    23     8    20 1   
    24     9    22 ar  
    25     9    23 ar  
    26     9    53 1   
    27    10    17 ar  
    28    10    25 ar  
    29    11    18 1   
    30    11    26 ar  
    31    11    38 ar  
    32    12    13 1   
    33    12    54 1   
    34    12    55 1   
    35    12    56 1   
    36    13    57 1   
    37    13    58 1   
    38    14    15 1   
    39    14    73 1   
    40    15    16 ar  
    41    15    25 ar  
    42    16    59 1   
    43    17    18 1   
    44    18    19 1   
    45    19    60 1   
    46    20    21 ar  
    47    20    24 ar  
    48    21    22 ar  
    49    21    61 1   
    50    23    24 ar  
    51    24    62 1   
    52    26    27 1   
    53    26    28 ar  
    54    28    29 ar  
    55    28    63 1   
    56    29    30 ar  
    57    29    64 1   
    58    30    31 1   
    59    30    38 ar  
    60    31    32 1   
    61    31    65 1   
    62    32    33 2   
    63    32    34 2   
    64    32    35 1   
    65    35    36 1   
    66    35    66 1   
    67    35    67 1   
    68    36    37 1   
    69    36    68 1   
    70    36    69 1   
    71    37    70 1   
    72    37    71 1   
    73    37    72 1   
    74    38    39 1   
    75    49    73 1   
    76    50    73 1   
    77    51    73 1   
@<TRIPOS>SUBSTRUCTURE
     1 54J         1 TEMP              0 ****  ****    0 ROOT
