@<TRIPOS>MOLECULE
54K
   19    20     1     0     0
SMALL
bcc


@<TRIPOS>ATOM
      1 N1          -0.5830     1.9340    -0.1220 nb         1 54K      -0.735000
      2 C2           0.7600     1.8240    -0.1060 ca         1 54K       0.412200
      3 C3           1.4750     0.6490    -0.0440 ca         1 54K      -0.171600
      4 C3M          2.9680     0.5950    -0.0210 c3         1 54K      -0.026800
      5 C4           0.6790    -0.5100    -0.0040 ca         1 54K       0.123400
      6 C5          -0.7100    -0.4010    -0.0320 ca         1 54K      -0.254500
      7 C6          -1.3390     0.8540    -0.0870 ca         1 54K       0.664200
      8 N6          -2.7000     0.9890    -0.1630 nv         1 54K      -0.932500
      9 N7          -1.1710    -1.6920     0.0090 na         1 54K      -0.249300
     10 C8          -0.0840    -2.4890     0.0600 cc         1 54K       0.418700
     11 N9           1.0440    -1.8290     0.0550 nd         1 54K      -0.578100
     12 H1           1.2970     2.7670    -0.1430 h4         1 54K       0.018100
     13 H2           3.3390     0.1290     0.8930 hc         1 54K       0.044700
     14 H3           3.3610     0.0120    -0.8570 hc         1 54K       0.044700
     15 H4           3.3960     1.5950    -0.0830 hc         1 54K       0.044700
     16 H5          -3.0400     1.9160     0.0430 hn         1 54K       0.404300
     17 H6          -3.2600     0.2710     0.2660 hn         1 54K       0.404300
     18 H7          -2.1270    -2.0100    -0.0070 hn         1 54K       0.306700
     19 H8          -0.1780    -3.5640     0.0980 h5         1 54K       0.062800
@<TRIPOS>BOND
     1     1     2 ar  
     2     1     7 ar  
     3     2     3 ar  
     4     2    12 1   
     5     3     4 1   
     6     3     5 ar  
     7     4    13 1   
     8     4    14 1   
     9     4    15 1   
    10     5     6 ar  
    11     5    11 1   
    12     6     7 ar  
    13     6     9 1   
    14     7     8 1   
    15     8    16 1   
    16     8    17 1   
    17     9    10 1   
    18     9    18 1   
    19    10    11 2   
    20    10    19 1   
@<TRIPOS>SUBSTRUCTURE
     1 54K         1 TEMP              0 ****  ****    0 ROOT
