@<TRIPOS>MOLECULE
54K
   19    20     1     0     0
SMALL
No Charge or Current Charge


@<TRIPOS>ATOM
      1 N1          -0.6360     1.9630    -0.1430 nb         1 54K      -0.735000
      2 C2           0.7240     1.8710    -0.1160 ca         1 54K       0.346900
      3 C3           1.4320     0.6450    -0.0470 ca         1 54K      -0.106300
      4 C3M          2.9540     0.6030    -0.0180 c3         1 54K      -0.026800
      5 C4           0.6600    -0.5260    -0.0080 ca         1 54K       0.123400
      6 C5          -0.6940    -0.4310    -0.0370 ca         1 54K      -0.189200
      7 C6          -1.3170     0.8210    -0.1060 ca         1 54K       0.598900
      8 N6          -2.6410     1.0180    -0.1260 nv         1 54K      -1.042900
      9 N7          -1.1810    -1.7110     0.0080 na         1 54K      -0.299600
     10 C8          -0.0770    -2.5610     0.0670 cc         1 54K       0.418700
     11 N9           1.0750    -1.8550     0.0590 nd         1 54K      -0.578100
     12 H1           1.2650     2.8170    -0.1480 h4         1 54K       0.018100
     13 H2           3.3150     0.1190     0.8970 hc         1 54K       0.044700
     14 H3           3.3470     0.0400    -0.8730 hc         1 54K       0.044700
     15 H4           3.3880     1.6100    -0.0560 hc         1 54K       0.044700
     16 H5          -2.9330     1.9730     0.0480 hn         1 54K       0.459500
     17 H6          -3.2310     0.2890     0.2560 hn         1 54K       0.459500
     18 H7          -2.1500    -2.0060    -0.0140 hn         1 54K       0.357000
     19 H8          -0.1740    -3.6390     0.1100 h5         1 54K       0.062800
@<TRIPOS>BOND
     1     1     2 ar  
     2     1     7 ar  
     3     2     3 ar  
     4     2    12 1   
     5     3     4 1   
     6     3     5 ar  
     7     4    13 1   
     8     4    14 1   
     9     4    15 1   
    10     5     6 ar  
    11     5    11 1   
    12     6     7 ar  
    13     6     9 1   
    14     7     8 1   
    15     8    16 1   
    16     8    17 1   
    17     9    10 1   
    18     9    18 1   
    19    10    11 2   
    20    10    19 1   
@<TRIPOS>SUBSTRUCTURE
     1 54K         1 TEMP              0 ****  ****    0 ROOT
