@<TRIPOS>MOLECULE
54L
   12    11     1     0     0
SMALL
No Charge or Current Charge


@<TRIPOS>ATOM
      1 C38          1.5200    -0.0310    -0.1440 c          1 54L       0.718000
      2 O39          1.9810     0.6930    -1.0130 o          1 54L      -0.740500
      3 C40          0.0870    -0.5540    -0.3220 c3         1 54L      -0.204400
      4 C41         -0.9140     0.4570     0.2870 c3         1 54L       0.005700
      5 C42         -2.3120     0.0220     0.1540 c1         1 54L      -0.084100
      6 C43         -3.4700    -0.3120     0.0570 c1         1 54L      -0.355000
      7 H2          -0.1630    -0.6290    -1.3880 hc         1 54L       0.023700
      8 H3          -0.0490    -1.4910     0.2330 hc         1 54L       0.023700
      9 H4          -0.6900     0.6060     1.3510 hc         1 54L       0.061200
     10 H5          -0.7990     1.4320    -0.2030 hc         1 54L       0.061200
     11 H6          -4.4940    -0.6210    -0.0340 ha         1 54L       0.231000
     12 O1           2.1140    -0.3160     0.8840 o          1 54L      -0.740500
@<TRIPOS>BOND
     1     1     2 1   
     2     1     3 1   
     3     1    12 1   
     4     3     4 1   
     5     3     7 1   
     6     3     8 1   
     7     4     5 1   
     8     4     9 1   
     9     4    10 1   
    10     5     6 3   
    11     6    11 1   
@<TRIPOS>SUBSTRUCTURE
     1 54L         1 TEMP              0 ****  ****    0 ROOT
