@<TRIPOS>MOLECULE
54L
   12    11     1     0     0
SMALL
bcc


@<TRIPOS>ATOM
      1 C38          1.5410    -0.0680    -0.0400 c          1 54L       0.928600
      2 O39          1.7550     1.1600    -0.0440 o          1 54L      -0.845800
      3 C40          0.0760    -0.5400    -0.0230 c3         1 54L      -0.204400
      4 C41         -0.9550     0.5860     0.0060 c3         1 54L       0.005700
      5 C42         -2.3240     0.0830     0.0140 c1         1 54L      -0.084100
      6 C43         -3.4460    -0.3520     0.0190 c1         1 54L      -0.267500
      7 H2          -0.0950    -1.1720    -0.9000 hc         1 54L       0.023700
      8 H3          -0.0710    -1.1970     0.8400 hc         1 54L       0.023700
      9 H4          -0.8030     1.2140     0.8870 hc         1 54L       0.061200
     10 H5          -0.8230     1.2410    -0.8580 hc         1 54L       0.061200
     11 H6          -4.4440    -0.7260     0.0090 ha         1 54L       0.143500
     12 O1           2.4000    -0.9730    -0.0490 o          1 54L      -0.845800
@<TRIPOS>BOND
     1     1     2 1   
     2     1     3 1   
     3     1    12 1   
     4     3     4 1   
     5     3     7 1   
     6     3     8 1   
     7     4     5 1   
     8     4     9 1   
     9     4    10 1   
    10     5     6 3   
    11     6    11 1   
@<TRIPOS>SUBSTRUCTURE
     1 54L         1 TEMP              0 ****  ****    0 ROOT
