@<TRIPOS>MOLECULE
54M
   46    49     1     0     0
SMALL
No Charge or Current Charge


@<TRIPOS>ATOM
      1 C15          5.0590     3.7660     0.9340 c3         1 54M       0.148900
      2 O14          4.5080     3.1330    -0.2350 os         1 54M      -0.342100
      3 C2           3.6680     2.0410    -0.1530 ca         1 54M       0.140100
      4 C3           3.1810     1.4950    -1.3470 ca         1 54M      -0.174500
      5 C4           2.3220     0.3830    -1.3270 ca         1 54M      -0.061500
      6 C1           3.2830     1.4660     1.0740 ca         1 54M      -0.174500
      7 C6           2.4230     0.3530     1.0950 ca         1 54M      -0.061500
      8 C5           1.9340    -0.2170    -0.1060 ca         1 54M      -0.117300
      9 C7           0.9760    -1.4350    -0.1080 c5         1 54M       0.243800
     10 C19          1.7360    -2.6060    -0.8440 c5         1 54M      -0.094400
     11 C17          1.5810    -2.9010     1.4440 c2         1 54M       0.616200
     12 N16          0.7060    -2.0010     1.2580 n2         1 54M      -0.680900
     13 N20          1.6170    -3.5980     2.6050 nv         1 54M      -1.033200
     14 C8          -0.3280    -1.1000    -0.8750 ca         1 54M      -0.054300
     15 C13         -1.3750    -0.4510    -0.1820 ca         1 54M      -0.063000
     16 C9          -0.5090    -1.3590    -2.2550 ca         1 54M      -0.105000
     17 C10         -1.7040    -1.0060    -2.9010 ca         1 54M      -0.114000
     18 C11         -2.7360    -0.3780    -2.1880 ca         1 54M      -0.097000
     19 C12         -2.5910    -0.0840    -0.8120 cp         1 54M      -0.043000
     20 C21         -3.6850     0.5970    -0.0470 cp         1 54M      -0.126000
     21 C14          2.5360    -3.1950     0.3320 c5         1 54M      -0.172700
     22 C26         -4.6030     1.4850    -0.6660 ca         1 54M       0.110400
     23 N21         -5.5880     2.1010     0.0190 nb         1 54M      -0.174000
     24 C24         -5.6650     1.8310     1.3380 ca         1 54M       0.110900
     25 N23         -4.8560     1.0100     2.0380 nb         1 54M      -0.174000
     26 C22         -3.8730     0.3990     1.3460 ca         1 54M       0.110400
     27 H151         4.2610     4.1510     1.5820 h1         1 54M       0.040033
     28 H152         5.6710     3.0590     1.5080 h1         1 54M       0.040033
     29 H153         5.6970     4.6100     0.6430 h1         1 54M       0.040033
     30 H3           3.4690     1.9370    -2.2980 ha         1 54M       0.120500
     31 H1           3.6350     1.8660     2.0200 ha         1 54M       0.120500
     32 H4           1.9570    -0.0110    -2.2720 ha         1 54M       0.119000
     33 H6           2.1420    -0.0590     2.0610 ha         1 54M       0.119000
     34 H191         1.0360    -3.3620    -1.2230 hc         1 54M       0.058700
     35 H192         2.3700    -2.2960    -1.6820 hc         1 54M       0.058700
     36 H141         2.7360    -4.2650     0.2130 hc         1 54M       0.065200
     37 H142         3.4880    -2.6780     0.4910 hc         1 54M       0.065200
     38 H201         0.7530    -3.5140     3.1280 hn         1 54M       0.478500
     39 H202         1.9710    -4.5440     2.5190 hn         1 54M       0.478500
     40 H13         -1.2310    -0.2110     0.8680 ha         1 54M       0.135000
     41 H9           0.2720    -1.8250    -2.8490 ha         1 54M       0.109000
     42 H10         -1.8300    -1.2170    -3.9600 ha         1 54M       0.113000
     43 H11         -3.6550    -0.1260    -2.7090 ha         1 54M       0.113000
     44 H26         -4.5410     1.7180    -1.7270 h4         1 54M       0.028600
     45 H22         -3.2330    -0.2720     1.9160 h4         1 54M       0.028600
     46 H24         -6.4590     2.3270     1.8940 h5         1 54M       0.049100
@<TRIPOS>BOND
     1     1     2 1   
     2     1    27 1   
     3     1    28 1   
     4     1    29 1   
     5     2     3 1   
     6     3     4 ar  
     7     3     6 ar  
     8     4     5 ar  
     9     4    30 1   
    10     5     8 ar  
    11     5    32 1   
    12     6     7 ar  
    13     6    31 1   
    14     7     8 ar  
    15     7    33 1   
    16     8     9 1   
    17     9    10 1   
    18     9    12 1   
    19     9    14 1   
    20    10    21 1   
    21    10    34 1   
    22    10    35 1   
    23    11    12 2   
    24    11    13 1   
    25    11    21 1   
    26    13    38 1   
    27    13    39 1   
    28    14    15 ar  
    29    14    16 ar  
    30    15    19 ar  
    31    15    40 1   
    32    16    17 ar  
    33    16    41 1   
    34    17    18 ar  
    35    17    42 1   
    36    18    19 ar  
    37    18    43 1   
    38    19    20 1   
    39    20    22 ar  
    40    20    26 ar  
    41    21    36 1   
    42    21    37 1   
    43    22    23 ar  
    44    22    44 1   
    45    23    24 ar  
    46    24    25 ar  
    47    24    46 1   
    48    25    26 ar  
    49    26    45 1   
@<TRIPOS>SUBSTRUCTURE
     1 54M         1 TEMP              0 ****  ****    0 ROOT
