@<TRIPOS>MOLECULE
54M
   46    49     1     0     0
SMALL
bcc


@<TRIPOS>ATOM
      1 C15          4.6410     3.8330     0.9080 c3         1 54M       0.125700
      2 O14          4.3170     3.1340    -0.2760 os         1 54M      -0.318900
      3 C2           3.5350     2.0390    -0.1790 ca         1 54M       0.140100
      4 C3           3.2250     1.3900    -1.3770 ca         1 54M      -0.192500
      5 C4           2.4290     0.2610    -1.3700 ca         1 54M      -0.079500
      6 C1           3.0310     1.5290     1.0110 ca         1 54M      -0.192500
      7 C6           2.2330     0.3880     0.9960 ca         1 54M      -0.079500
      8 C5           1.9190    -0.2700    -0.1830 ca         1 54M      -0.117300
      9 C7           1.0220    -1.5100    -0.2090 c5         1 54M       0.243800
     10 C19          1.7500    -2.7020    -0.8790 c5         1 54M      -0.094400
     11 C17          1.5120    -2.9490     1.4190 c2         1 54M       0.616200
     12 N16          0.7390    -1.9650     1.1460 n2         1 54M      -0.680900
     13 N20          1.5820    -3.5420     2.6270 nv         1 54M      -0.922800
     14 C8          -0.2730    -1.1200    -0.9050 ca         1 54M      -0.054300
     15 C13         -1.2740    -0.4810    -0.1800 ca         1 54M      -0.081000
     16 C9          -0.4700    -1.3290    -2.2660 ca         1 54M      -0.123000
     17 C10         -1.6410    -0.9090    -2.8850 ca         1 54M      -0.132000
     18 C11         -2.6310    -0.2750    -2.1540 ca         1 54M      -0.115000
     19 C12         -2.4520    -0.0540    -0.7880 cp         1 54M      -0.043000
     20 C21         -3.4920     0.6240     0.0010 cp         1 54M      -0.256600
     21 C14          2.4300    -3.3730     0.3050 c5         1 54M      -0.172700
     22 C26         -4.2410     1.6830    -0.5060 ca         1 54M       0.438700
     23 N21         -5.1810     2.2980     0.1970 nb         1 54M      -0.700000
     24 C24         -5.3810     1.8620     1.4310 ca         1 54M       0.636900
     25 N23         -4.7320     0.8720     2.0240 nb         1 54M      -0.700000
     26 C22         -3.7990     0.2600     1.3100 ca         1 54M       0.438700
     27 H151         3.7510     4.2120     1.4170 h1         1 54M       0.040033
     28 H152         5.2070     3.2130     1.6080 h1         1 54M       0.040033
     29 H153         5.2590     4.6770     0.6100 h1         1 54M       0.040033
     30 H3           3.6100     1.7790    -2.3120 ha         1 54M       0.138500
     31 H1           3.2440     1.9990     1.9630 ha         1 54M       0.138500
     32 H4           2.2030    -0.2110    -2.3190 ha         1 54M       0.137000
     33 H6           1.8510     0.0120     1.9360 ha         1 54M       0.137000
     34 H191         1.0160    -3.3860    -1.3100 hc         1 54M       0.058700
     35 H192         2.4390    -2.4150    -1.6720 hc         1 54M       0.058700
     36 H141         2.5190    -4.4560     0.2090 hc         1 54M       0.065200
     37 H142         3.4330    -2.9780     0.4920 hc         1 54M       0.065200
     38 H201         0.8780    -3.3220     3.3120 hn         1 54M       0.423300
     39 H202         1.9740    -4.4660     2.6900 hn         1 54M       0.423300
     40 H13         -1.1190    -0.3010     0.8770 ha         1 54M       0.153000
     41 H9           0.2850    -1.8270    -2.8620 ha         1 54M       0.127000
     42 H10         -1.7850    -1.0890    -3.9420 ha         1 54M       0.131000
     43 H11         -3.5490     0.0280    -2.6430 ha         1 54M       0.131000
     44 H26         -4.0620     2.0550    -1.5100 h4         1 54M       0.028600
     45 H22         -3.2790    -0.5630     1.7890 h4         1 54M       0.028600
     46 H24         -6.1490     2.3630     2.0100 h5         1 54M       0.049100
@<TRIPOS>BOND
     1     1     2 1   
     2     1    27 1   
     3     1    28 1   
     4     1    29 1   
     5     2     3 1   
     6     3     4 ar  
     7     3     6 ar  
     8     4     5 ar  
     9     4    30 1   
    10     5     8 ar  
    11     5    32 1   
    12     6     7 ar  
    13     6    31 1   
    14     7     8 ar  
    15     7    33 1   
    16     8     9 1   
    17     9    10 1   
    18     9    12 1   
    19     9    14 1   
    20    10    21 1   
    21    10    34 1   
    22    10    35 1   
    23    11    12 2   
    24    11    13 1   
    25    11    21 1   
    26    13    38 1   
    27    13    39 1   
    28    14    15 ar  
    29    14    16 ar  
    30    15    19 ar  
    31    15    40 1   
    32    16    17 ar  
    33    16    41 1   
    34    17    18 ar  
    35    17    42 1   
    36    18    19 ar  
    37    18    43 1   
    38    19    20 1   
    39    20    22 ar  
    40    20    26 ar  
    41    21    36 1   
    42    21    37 1   
    43    22    23 ar  
    44    22    44 1   
    45    23    24 ar  
    46    24    25 ar  
    47    24    46 1   
    48    25    26 ar  
    49    26    45 1   
@<TRIPOS>SUBSTRUCTURE
     1 54M         1 TEMP              0 ****  ****    0 ROOT
