@<TRIPOS>MOLECULE
54N
   59    63     1     0     0
SMALL
abcg2


@<TRIPOS>ATOM
      1 C1         -20.2240    28.0760    11.6490 ca         1 54N       0.392300
      2 C2         -20.3020    29.3320    11.0290 cp         1 54N      -0.078000
      3 C3         -19.2850    29.6900    10.1620 ca         1 54N      -0.057000
      4 C7         -15.6400    25.0070    11.2410 c3         1 54N       0.150100
      5 C8         -15.7590    27.2360    12.0860 c3         1 54N       0.150100
      6 C9         -21.3820    30.2930    11.3460 cp         1 54N      -0.095000
      7 C10        -21.1040    31.3330    12.2140 ca         1 54N       0.398900
      8 C11        -23.1980    32.2540    12.1100 ca         1 54N       0.648900
      9 C12        -23.6130    31.2380    11.1950 ca         1 54N      -0.247900
     10 C13        -22.6840    30.2650    10.8210 ca         1 54N      -0.048600
     11 C14        -23.1070    29.2430     9.8500 c          1 54N       0.546600
     12 C15        -24.9270    31.1830    10.6320 cc         1 54N       0.378800
     13 C16        -23.5950    34.3600    13.3010 c3         1 54N       0.289100
     14 C19        -22.5150    36.8640    10.6330 ca         1 54N      -0.119000
     15 C20        -21.1780    37.1020    10.9500 ca         1 54N      -0.107000
     16 C21        -20.6550    36.4460    12.0470 ca         1 54N       0.109100
     17 C22        -21.4160    35.5710    12.8160 ca         1 54N      -0.112300
     18 C24        -19.1680    35.5500    13.4810 c5         1 54N       0.147600
     19 C18        -23.2550    35.9900    11.4020 ca         1 54N       0.134000
     20 O1         -19.3850    36.5700    12.4890 os         1 54N      -0.330100
     21 C23        -20.5550    35.0870    13.9450 c5         1 54N      -0.061100
     22 C17        -22.7400    35.3160    12.5070 ca         1 54N      -0.099300
     23 N5         -24.0400    33.2180    12.5310 nu         1 54N      -0.925100
     24 N2         -21.9630    32.2750    12.5840 nb         1 54N      -0.748000
     25 N4         -25.3000    30.2880     9.7900 nd         1 54N      -0.423300
     26 N3         -24.4010    29.3700     9.4340 ns         1 54N      -0.243900
     27 O          -22.3990    28.3470     9.4250 o          1 54N      -0.520000
     28 C4         -18.2500    28.8000     9.9120 ca         1 54N      -0.168000
     29 C5         -18.2670    27.5690    10.5460 ca         1 54N       0.361300
     30 C6         -17.1920    26.5450    10.2900 c3         1 54N       0.116500
     31 N1         -16.5000    26.1420    11.4970 n3         1 54N      -0.694600
     32 N          -19.2340    27.2310    11.3990 nb         1 54N      -0.655000
     33 C          -21.2650    27.6390    12.6350 c3         1 54N      -0.145400
     34 H1         -19.3010    30.6590     9.6790 ha         1 54N       0.118000
     35 H2         -15.1620    24.6840    12.1660 h1         1 54N       0.029700
     36 H3         -16.2270    24.1700    10.8590 h1         1 54N       0.029700
     37 H4         -14.8440    25.2180    10.5090 h1         1 54N       0.029700
     38 H5         -15.2630    26.8970    12.9970 h1         1 54N       0.029700
     39 H6         -14.9860    27.6460    11.4170 h1         1 54N       0.029700
     40 H7         -16.4270    28.0530    12.3630 h1         1 54N       0.029700
     41 H10        -24.4900    34.8630    13.6640 h1         1 54N       0.066700
     42 H11        -23.0470    34.0210    14.1790 h1         1 54N       0.066700
     43 H12        -22.9720    37.3570     9.7860 ha         1 54N       0.134000
     44 H13        -20.5820    37.7790    10.3530 ha         1 54N       0.136000
     45 H16        -24.9640    33.2700    12.1420 hn         1 54N       0.501000
     46 H18        -17.4430    29.0610     9.2390 ha         1 54N       0.121000
     47 H19        -17.6610    25.6570     9.8550 h1         1 54N       0.042700
     48 H20        -16.4990    26.9390     9.5270 h1         1 54N       0.042700
     49 H8         -20.1110    31.4090    12.6440 h4         1 54N       0.023100
     50 H9         -25.6910    31.9050    10.8880 h4         1 54N       0.035800
     51 H14        -18.6140    34.7290    13.0190 h1         1 54N       0.059200
     52 H15        -18.5600    35.9730    14.2800 h1         1 54N       0.059200
     53 H17        -20.8480    35.5550    14.8880 hc         1 54N       0.074700
     54 H21        -20.6020    34.0070    14.0800 hc         1 54N       0.074700
     55 H22        -24.7410    28.6910     8.7660 hn         1 54N       0.353500
     56 H23        -20.9780    26.6950    13.0930 hc         1 54N       0.051700
     57 H24        -21.4040    28.3790    13.4250 hc         1 54N       0.051700
     58 H25        -22.2340    27.5010    12.1530 hc         1 54N       0.051700
     59 F          -24.5470    35.7810    11.0760 f          1 54N      -0.190000
@<TRIPOS>BOND
     1     1     2 ar  
     2     1    32 ar  
     3     1    33 1   
     4     2     3 ar  
     5     2     6 1   
     6     3    28 ar  
     7     3    34 1   
     8     4    31 1   
     9     4    35 1   
    10     4    36 1   
    11     4    37 1   
    12     5    31 1   
    13     5    38 1   
    14     5    39 1   
    15     5    40 1   
    16     6     7 ar  
    17     6    10 ar  
    18     7    24 ar  
    19     7    49 1   
    20     8     9 ar  
    21     8    23 1   
    22     8    24 ar  
    23     9    10 ar  
    24     9    12 1   
    25    10    11 1   
    26    11    26 1   
    27    11    27 2   
    28    12    25 2   
    29    12    50 1   
    30    13    22 1   
    31    13    23 1   
    32    13    41 1   
    33    13    42 1   
    34    14    15 ar  
    35    14    19 ar  
    36    14    43 1   
    37    15    16 ar  
    38    15    44 1   
    39    16    17 ar  
    40    16    20 1   
    41    17    21 1   
    42    17    22 ar  
    43    18    20 1   
    44    18    21 1   
    45    18    51 1   
    46    18    52 1   
    47    19    22 ar  
    48    19    59 1   
    49    21    53 1   
    50    21    54 1   
    51    23    45 1   
    52    25    26 1   
    53    26    55 1   
    54    28    29 ar  
    55    28    46 1   
    56    29    30 1   
    57    29    32 ar  
    58    30    31 1   
    59    30    47 1   
    60    30    48 1   
    61    33    56 1   
    62    33    57 1   
    63    33    58 1   
@<TRIPOS>SUBSTRUCTURE
     1 54N         1 TEMP              0 ****  ****    0 ROOT
