@<TRIPOS>MOLECULE
54N
   59    63     1     0     0
SMALL
No Charge or Current Charge


@<TRIPOS>ATOM
      1 C1         -20.3300    27.9810    11.4530 ca         1 54N       0.392300
      2 C2         -20.0410    29.3610    11.6450 cp         1 54N      -0.078000
      3 C3         -18.7080    29.7840    11.4540 ca         1 54N      -0.057000
      4 C7         -15.5830    24.5670    11.1210 c3         1 54N       0.150100
      5 C8         -15.7000    26.5480    12.5720 c3         1 54N       0.150100
      6 C9         -21.0890    30.3410    12.0550 cp         1 54N      -0.095000
      7 C10        -21.1840    30.7180    13.4170 ca         1 54N       0.398900
      8 C11        -22.9490    32.1370    13.0440 ca         1 54N       0.648900
      9 C12        -22.9680    31.8550    11.6730 ca         1 54N      -0.247900
     10 C13        -22.0200    30.9470    11.1640 ca         1 54N      -0.048600
     11 C14        -21.9910    30.6590     9.6780 c          1 54N       0.546600
     12 C15        -23.9080    32.5070    10.7620 cc         1 54N       0.378800
     13 C16        -23.3730    34.3990    13.9990 c3         1 54N       0.289100
     14 C19        -24.0840    36.6430    10.9440 ca         1 54N      -0.119000
     15 C20        -22.8080    36.7490    10.3570 ca         1 54N      -0.107000
     16 C21        -21.7380    36.0860    10.9680 ca         1 54N       0.109100
     17 C22        -21.9010    35.3550    12.1240 ca         1 54N      -0.112300
     18 C24        -19.7530    35.0860    11.2690 c5         1 54N       0.147600
     19 C18        -24.2610    35.8890    12.1220 ca         1 54N       0.134000
     20 O1         -20.4530    36.1220    10.5030 os         1 54N      -0.330100
     21 C23        -20.5820    34.8000    12.5730 c5         1 54N      -0.061100
     22 C17        -23.1680    35.2310    12.7350 ca         1 54N      -0.099300
     23 N5         -23.7920    33.0380    13.6360 nu         1 54N      -0.925100
     24 N2         -22.0860    31.5980    13.9050 nb         1 54N      -0.748000
     25 N4         -23.8930    32.2620     9.4500 nd         1 54N      -0.423300
     26 N3         -22.9520    31.3630     8.9730 ns         1 54N      -0.243900
     27 O          -21.2200    29.8970     9.1130 o          1 54N      -0.520000
     28 C4         -17.7410    28.8400    11.0800 ca         1 54N      -0.168000
     29 C5         -18.1180    27.4940    10.9130 ca         1 54N       0.361300
     30 C6         -17.0770    26.4360    10.5000 c3         1 54N       0.116500
     31 N1         -16.4230    25.6810    11.6130 n3         1 54N      -0.694600
     32 N          -19.3930    27.0710    11.0960 nb         1 54N      -0.655000
     33 C          -21.7300    27.4220    11.6530 c3         1 54N      -0.145400
     34 H1         -18.4350    30.8290    11.5900 ha         1 54N       0.118000
     35 H2         -15.1860    23.9790    11.9600 h1         1 54N       0.029700
     36 H3         -16.1680    23.8920    10.4830 h1         1 54N       0.029700
     37 H4         -14.7350    24.9460    10.5340 h1         1 54N       0.029700
     38 H5         -15.2670    25.9510    13.3850 h1         1 54N       0.029700
     39 H6         -14.8850    27.0900    12.0720 h1         1 54N       0.029700
     40 H7         -16.3770    27.2840    13.0250 h1         1 54N       0.029700
     41 H10        -24.1380    34.8760    14.6270 h1         1 54N       0.066700
     42 H11        -22.4460    34.3730    14.5890 h1         1 54N       0.066700
     43 H12        -24.9370    37.1420    10.4890 ha         1 54N       0.134000
     44 H13        -22.6550    37.3280     9.4490 ha         1 54N       0.136000
     45 H16        -24.7390    32.9790    13.2740 hn         1 54N       0.501000
     46 H18        -16.7100    29.1430    10.9230 ha         1 54N       0.121000
     47 H19        -17.5780    25.7270     9.8270 h1         1 54N       0.042700
     48 H20        -16.3070    26.9360     9.8960 h1         1 54N       0.042700
     49 H8         -20.4960    30.2910    14.1470 h4         1 54N       0.023100
     50 H9         -24.6740    33.2190    11.0380 h4         1 54N       0.035800
     51 H14        -19.7050    34.1830    10.6460 h1         1 54N       0.059200
     52 H15        -18.7250    35.4080    11.4800 h1         1 54N       0.059200
     53 H17        -20.1790    35.3400    13.4380 hc         1 54N       0.074700
     54 H21        -20.6030    33.7330    12.8150 hc         1 54N       0.074700
     55 H22        -22.9440    31.1800     7.9730 hn         1 54N       0.353500
     56 H23        -21.7520    26.3280    11.5790 hc         1 54N       0.051700
     57 H24        -22.1190    27.6930    12.6410 hc         1 54N       0.051700
     58 H25        -22.4180    27.8200    10.8990 hc         1 54N       0.051700
     59 F          -25.4990    35.7940    12.6570 f          1 54N      -0.190000
@<TRIPOS>BOND
     1     1     2 ar  
     2     1    32 ar  
     3     1    33 1   
     4     2     3 ar  
     5     2     6 1   
     6     3    28 ar  
     7     3    34 1   
     8     4    31 1   
     9     4    35 1   
    10     4    36 1   
    11     4    37 1   
    12     5    31 1   
    13     5    38 1   
    14     5    39 1   
    15     5    40 1   
    16     6     7 ar  
    17     6    10 ar  
    18     7    24 ar  
    19     7    49 1   
    20     8     9 ar  
    21     8    23 1   
    22     8    24 ar  
    23     9    10 ar  
    24     9    12 1   
    25    10    11 1   
    26    11    26 1   
    27    11    27 2   
    28    12    25 2   
    29    12    50 1   
    30    13    22 1   
    31    13    23 1   
    32    13    41 1   
    33    13    42 1   
    34    14    15 ar  
    35    14    19 ar  
    36    14    43 1   
    37    15    16 ar  
    38    15    44 1   
    39    16    17 ar  
    40    16    20 1   
    41    17    21 1   
    42    17    22 ar  
    43    18    20 1   
    44    18    21 1   
    45    18    51 1   
    46    18    52 1   
    47    19    22 ar  
    48    19    59 1   
    49    21    53 1   
    50    21    54 1   
    51    23    45 1   
    52    25    26 1   
    53    26    55 1   
    54    28    29 ar  
    55    28    46 1   
    56    29    30 1   
    57    29    32 ar  
    58    30    31 1   
    59    30    47 1   
    60    30    48 1   
    61    33    56 1   
    62    33    57 1   
    63    33    58 1   
@<TRIPOS>SUBSTRUCTURE
     1 54N         1 TEMP              0 ****  ****    0 ROOT
