@<TRIPOS>MOLECULE
54O
   15    14     1     0     0
SMALL
bcc


@<TRIPOS>ATOM
      1 C2           1.4420    -0.2060    -0.0030 c3         1 54O      -0.036400
      2 O2          -1.3840    -0.8510     1.1850 o          1 54O      -0.698200
      3 S1          -1.3250    -0.0240    -0.0370 s6         1 54O       1.213800
      4 O3          -1.3540    -0.8270    -1.2770 o          1 54O      -0.698200
      5 O1          -2.3110     1.0750    -0.0380 o          1 54O      -0.698200
      6 C3           0.2860     0.7800    -0.0100 c3         1 54O      -0.247600
      7 C1           2.7740     0.5220     0.0170 c3         1 54O       0.134400
      8 O4           3.8130    -0.4320     0.0250 oh         1 54O      -0.604800
      9 H1           1.3680    -0.8540     0.8740 hc         1 54O       0.060700
     10 H2           1.3880    -0.8440    -0.8880 hc         1 54O       0.060700
     11 H3           0.3090     1.4180     0.8770 h1         1 54O       0.061700
     12 H4           0.3320     1.4320    -0.8850 h1         1 54O       0.061700
     13 H5           2.8390     1.1800    -0.8600 h1         1 54O       0.005700
     14 H6           2.8180     1.1710     0.9020 h1         1 54O       0.005700
     15 H7           4.6510     0.0390     0.0350 ho         1 54O       0.380000
@<TRIPOS>BOND
     1     1     6 1   
     2     1     7 1   
     3     1     9 1   
     4     1    10 1   
     5     2     3 1   
     6     3     4 1   
     7     3     5 1   
     8     3     6 1   
     9     6    11 1   
    10     6    12 1   
    11     7     8 1   
    12     7    13 1   
    13     7    14 1   
    14     8    15 1   
@<TRIPOS>SUBSTRUCTURE
     1 54O         1 TEMP              0 ****  ****    0 ROOT
