@<TRIPOS>MOLECULE
54O
   15    14     1     0     0
SMALL
No Charge or Current Charge


@<TRIPOS>ATOM
      1 C2           1.4390    -0.2020    -0.0040 c3         1 54O      -0.036400
      2 O2          -1.3880    -0.8350     1.1940 o          1 54O      -0.698200
      3 S1          -1.3780    -0.0320    -0.0370 s6         1 54O       1.324600
      4 O3          -1.3580    -0.8160    -1.2800 o          1 54O      -0.698200
      5 O1          -2.3260     1.0910    -0.0400 o          1 54O      -0.698200
      6 C3           0.2400     0.7830    -0.0110 c3         1 54O      -0.358400
      7 C1           2.8030     0.5180     0.0180 c3         1 54O       0.157600
      8 O4           3.8640    -0.4420     0.0240 oh         1 54O      -0.667000
      9 H1           1.3700    -0.8590     0.8720 hc         1 54O       0.060700
     10 H2           1.3910    -0.8450    -0.8920 hc         1 54O       0.060700
     11 H3           0.2570     1.4110     0.8870 h1         1 54O       0.061700
     12 H4           0.2790     1.4240    -0.8990 h1         1 54O       0.061700
     13 H5           2.8850     1.1660    -0.8640 h1         1 54O       0.005700
     14 H6           2.8640     1.1530     0.9120 h1         1 54O       0.005700
     15 H7           4.7050     0.0650     0.0370 ho         1 54O       0.419000
@<TRIPOS>BOND
     1     1     6 1   
     2     1     7 1   
     3     1     9 1   
     4     1    10 1   
     5     2     3 1   
     6     3     4 1   
     7     3     5 1   
     8     3     6 1   
     9     6    11 1   
    10     6    12 1   
    11     7     8 1   
    12     7    13 1   
    13     7    14 1   
    14     8    15 1   
@<TRIPOS>SUBSTRUCTURE
     1 54O         1 TEMP              0 ****  ****    0 ROOT
