@<TRIPOS>MOLECULE
54P
   37    38     1     0     0
SMALL
No Charge or Current Charge


@<TRIPOS>ATOM
      1 C2           4.7160    -0.2410    -0.5570 c3         1 54P       0.157800
      2 C4           0.9320    -0.4120    -0.9940 ca         1 54P      -0.076300
      3 C5           0.3130    -1.5810    -0.5170 ca         1 54P      -0.084000
      4 C6          -1.0360    -1.5600    -0.1260 ca         1 54P      -0.098000
      5 C8          -1.1670     0.8040    -0.6840 ca         1 54P       0.129000
      6 C7          -1.8020    -0.3710    -0.1930 cp         1 54P      -0.023000
      7 C10         -3.2320    -0.3930     0.2400 cp         1 54P      -0.041000
      8 C15         -4.1260    -1.3580    -0.2850 ca         1 54P      -0.089000
      9 C14         -5.4700    -1.4000     0.1260 ca         1 54P      -0.113500
     10 C13         -5.9430    -0.4800     1.0760 ca         1 54P      -0.103000
     11 C12         -5.0700     0.4770     1.6180 ca         1 54P      -0.113500
     12 C11         -3.7270     0.5180     1.2070 ca         1 54P      -0.089000
     13 C9           0.1830     0.7770    -1.0770 ca         1 54P      -0.104000
     14 C3           2.3930    -0.4360    -1.4220 c3         1 54P       0.203100
     15 N            3.2750    -0.2620    -0.2540 n7         1 54P      -0.855400
     16 C1           5.5300    -0.0790     0.7410 c3         1 54P      -0.086400
     17 C            7.0490    -0.0630     0.4840 c3         1 54P       0.164600
     18 O            7.7480     0.0910     1.7230 oh         1 54P      -0.660000
     19 H1           5.0150    -1.1750    -1.0520 h1         1 54P       0.027700
     20 H2           4.9520     0.5900    -1.2360 h1         1 54P       0.027700
     21 H3           0.8810    -2.5070    -0.4470 ha         1 54P       0.125000
     22 H4          -1.4940    -2.4730     0.2460 ha         1 54P       0.122000
     23 H5          -3.7720    -2.0740    -1.0230 ha         1 54P       0.117000
     24 H6          -6.1430    -2.1450    -0.2930 ha         1 54P       0.113500
     25 H7          -6.9830    -0.5120     1.3950 ha         1 54P       0.112000
     26 H8          -5.4330     1.1850     2.3600 ha         1 54P       0.113500
     27 H9          -3.0590     1.2550     1.6460 ha         1 54P       0.117000
     28 H10          0.6470     1.6850    -1.4530 ha         1 54P       0.125000
     29 H11          2.6040    -1.3910    -1.9230 h1         1 54P       0.037700
     30 H12          2.5660     0.3630    -2.1560 h1         1 54P       0.037700
     31 H13          3.0260     0.6270     0.1950 hn         1 54P       0.412000
     32 H15          5.2400     0.8540     1.2390 hc         1 54P       0.060700
     33 H16          5.2900    -0.9030     1.4230 hc         1 54P       0.060700
     34 H17          7.3440    -1.0010    -0.0050 h1         1 54P       0.015200
     35 H18          7.2930     0.7640    -0.1960 h1         1 54P       0.015200
     36 H19          8.7080     0.0950     1.5100 ho         1 54P       0.443000
     37 Cl          -2.0400     2.3260    -0.8740 cl         1 54P      -0.202000
@<TRIPOS>BOND
     1     1    15 1   
     2     1    16 1   
     3     1    19 1   
     4     1    20 1   
     5     2     3 ar  
     6     2    13 ar  
     7     2    14 1   
     8     3     4 ar  
     9     3    21 1   
    10     4     6 ar  
    11     4    22 1   
    12     5     6 ar  
    13     5    13 ar  
    14     5    37 1   
    15     6     7 1   
    16     7     8 ar  
    17     7    12 ar  
    18     8     9 ar  
    19     8    23 1   
    20     9    10 ar  
    21     9    24 1   
    22    10    11 ar  
    23    10    25 1   
    24    11    12 ar  
    25    11    26 1   
    26    12    27 1   
    27    13    28 1   
    28    14    15 1   
    29    14    29 1   
    30    14    30 1   
    31    15    31 1   
    32    16    17 1   
    33    16    32 1   
    34    16    33 1   
    35    17    18 1   
    36    17    34 1   
    37    17    35 1   
    38    18    36 1   
@<TRIPOS>SUBSTRUCTURE
     1 54P         1 TEMP              0 ****  ****    0 ROOT
