@<TRIPOS>MOLECULE
54P
   37    38     1     0     0
SMALL
bcc


@<TRIPOS>ATOM
      1 C2           4.6350    -0.2560    -0.5020 c3         1 54P       0.157800
      2 C4           0.9330    -0.3480    -0.9970 ca         1 54P      -0.076300
      3 C5           0.3510    -1.4810    -0.4350 ca         1 54P      -0.102000
      4 C6          -0.9780    -1.4730    -0.0540 ca         1 54P      -0.116000
      5 C8          -1.1750     0.7900    -0.7560 ca         1 54P       0.037400
      6 C7          -1.7750    -0.3350    -0.1960 cp         1 54P      -0.023000
      7 C10         -3.1910    -0.3780     0.2290 cp         1 54P      -0.041000
      8 C15         -4.0570    -1.3080    -0.3420 ca         1 54P      -0.107000
      9 C14         -5.3800    -1.3890     0.0720 ca         1 54P      -0.131500
     10 C13         -5.8510    -0.5450     1.0680 ca         1 54P      -0.121000
     11 C12         -4.9920     0.3810     1.6470 ca         1 54P      -0.131500
     12 C11         -3.6720     0.4670     1.2290 ca         1 54P      -0.107000
     13 C9           0.1550     0.7900    -1.1530 ca         1 54P      -0.122000
     14 C3           2.3870    -0.3420    -1.3790 c3         1 54P       0.203100
     15 N            3.2170    -0.2120    -0.1940 n7         1 54P      -0.800200
     16 C1           5.4730    -0.0430     0.7490 c3         1 54P      -0.086400
     17 C            6.9550    -0.1550     0.4540 c3         1 54P       0.141400
     18 O            7.6790     0.0690     1.6450 oh         1 54P      -0.597800
     19 H1           4.8580    -1.2400    -0.9270 h1         1 54P       0.027700
     20 H2           4.9230     0.4820    -1.2680 h1         1 54P       0.027700
     21 H3           0.9420    -2.3790    -0.2990 ha         1 54P       0.143000
     22 H4          -1.4160    -2.3640     0.3780 ha         1 54P       0.140000
     23 H5          -3.6960    -1.9660    -1.1230 ha         1 54P       0.135000
     24 H6          -6.0420    -2.1130    -0.3870 ha         1 54P       0.131500
     25 H7          -6.8800    -0.6090     1.3930 ha         1 54P       0.130000
     26 H8          -5.3490     1.0370     2.4310 ha         1 54P       0.131500
     27 H9          -3.0070     1.1820     1.6970 ha         1 54P       0.135000
     28 H10          0.5830     1.6820    -1.5930 ha         1 54P       0.143000
     29 H11          2.6380    -1.2890    -1.8660 h1         1 54P       0.037700
     30 H12          2.5710     0.4490    -2.1210 h1         1 54P       0.037700
     31 H13          3.0040     0.6740     0.2490 hn         1 54P       0.356800
     32 H15          5.2610     0.9470     1.1670 hc         1 54P       0.060700
     33 H16          5.1890    -0.7810     1.5040 hc         1 54P       0.060700
     34 H17          7.1660    -1.1510     0.0400 h1         1 54P       0.015200
     35 H18          7.2290     0.5720    -0.3230 h1         1 54P       0.015200
     36 H19          8.6160    -0.0090     1.4440 ho         1 54P       0.404000
     37 CL          -2.0990     2.2360    -1.0180 cl         1 54P      -0.110400
@<TRIPOS>BOND
     1     1    15 1   
     2     1    16 1   
     3     1    19 1   
     4     1    20 1   
     5     2     3 ar  
     6     2    13 ar  
     7     2    14 1   
     8     3     4 ar  
     9     3    21 1   
    10     4     6 ar  
    11     4    22 1   
    12     5     6 ar  
    13     5    13 ar  
    14     5    37 1   
    15     6     7 1   
    16     7     8 ar  
    17     7    12 ar  
    18     8     9 ar  
    19     8    23 1   
    20     9    10 ar  
    21     9    24 1   
    22    10    11 ar  
    23    10    25 1   
    24    11    12 ar  
    25    11    26 1   
    26    12    27 1   
    27    13    28 1   
    28    14    15 1   
    29    14    29 1   
    30    14    30 1   
    31    15    31 1   
    32    16    17 1   
    33    16    32 1   
    34    16    33 1   
    35    17    18 1   
    36    17    34 1   
    37    17    35 1   
    38    18    36 1   
@<TRIPOS>SUBSTRUCTURE
     1 54P         1 TEMP              0 ****  ****    0 ROOT
