@<TRIPOS>MOLECULE
54Q
   45    48     1     0     0
SMALL
No Charge or Current Charge


@<TRIPOS>ATOM
      1 O5           6.0750    -0.5100     1.0040 o          1 54Q      -0.413500
      2 N3           5.1480    -1.1520     0.4950 no         1 54Q       0.705200
      3 O4           5.2510    -2.3310     0.1320 o          1 54Q      -0.413500
      4 C9           3.8340    -0.4650     0.3020 ca         1 54Q      -0.246200
      5 C8           3.6610     0.8740     0.7050 ca         1 54Q       0.015000
      6 C7           2.4260     1.5140     0.5180 ca         1 54Q      -0.205000
      7 C10          2.7440    -1.1520    -0.2710 ca         1 54Q       0.020000
      8 C11          1.5050    -0.5060    -0.4490 ca         1 54Q      -0.191300
      9 C6           1.3380     0.8470    -0.0800 ca         1 54Q       0.422000
     10 N            0.0880     1.5100    -0.2810 nh         1 54Q      -0.821400
     11 C5          -0.0180     2.9930    -0.4940 c6         1 54Q       0.188800
     12 C3          -1.2570     3.5680     0.2570 c6         1 54Q       0.151300
     13 C4          -1.4900     5.0680    -0.0440 c3         1 54Q      -0.089100
     14 O           -2.4550     2.8660    -0.1410 os         1 54Q      -0.448000
     15 C1          -2.4040     1.4430     0.1220 c6         1 54Q       0.156300
     16 C2          -3.8100     0.9170    -0.2690 c3         1 54Q      -0.096100
     17 C12          0.3420    -1.2970    -1.0330 c6         1 54Q      -0.008100
     18 C13         -1.0220    -0.7630    -0.5170 c6         1 54Q      -0.223000
     19 C           -1.1830     0.7900    -0.6530 c6         1 54Q       0.229500
     20 C16         -1.1950    -1.1990     0.9590 c          1 54Q       0.587500
     21 O3          -0.5570    -0.7070     1.8740 o          1 54Q      -0.490000
     22 N2          -2.1120    -2.1580     1.2480 ns         1 54Q      -0.477500
     23 C15         -2.9560    -2.8030     0.4220 c          1 54Q       0.634000
     24 O2          -3.7240    -3.6640     0.8010 o          1 54Q      -0.517000
     25 N1          -2.8860    -2.3940    -0.8580 ns         1 54Q      -0.477500
     26 C14         -2.0870    -1.4450    -1.4060 c          1 54Q       0.587500
     27 O1          -2.2330    -1.1480    -2.5800 o          1 54Q      -0.490000
     28 H12          4.4760     1.4290     1.1690 ha         1 54Q       0.148000
     29 H11          2.3290     2.5340     0.8680 ha         1 54Q       0.126000
     30 H13          2.8480    -2.1920    -0.5750 ha         1 54Q       0.145000
     31 H9           0.8710     3.5400    -0.1580 h1         1 54Q       0.063700
     32 H10         -0.1220     3.2060    -1.5680 h1         1 54Q       0.063700
     33 H2          -1.1160     3.4450     1.3410 h1         1 54Q       0.049700
     34 H7          -1.6530     5.2390    -1.1150 hc         1 54Q       0.050367
     35 H8          -2.3660     5.4450     0.4960 hc         1 54Q       0.050367
     36 H6          -0.6260     5.6690     0.2650 hc         1 54Q       0.050367
     37 H1          -2.2740     1.3030     1.2040 h1         1 54Q       0.059700
     38 H3          -3.9400     0.8880    -1.3570 hc         1 54Q       0.051367
     39 H5          -3.9910    -0.0850     0.1300 hc         1 54Q       0.051367
     40 H4          -4.5950     1.5630     0.1420 hc         1 54Q       0.051367
     41 H14          0.3960    -1.2120    -2.1280 hc         1 54Q       0.073700
     42 H15          0.4440    -2.3690    -0.8050 hc         1 54Q       0.073700
     43 H           -1.3540     1.0010    -1.7200 h1         1 54Q       0.091700
     44 H17         -2.1700    -2.4260     2.2190 hn         1 54Q       0.355000
     45 H16         -3.5360    -2.8370    -1.4890 hn         1 54Q       0.355000
@<TRIPOS>BOND
     1     1     2 1   
     2     2     3 1   
     3     2     4 1   
     4     4     5 ar  
     5     4     7 ar  
     6     5     6 ar  
     7     5    28 1   
     8     6     9 ar  
     9     6    29 1   
    10     7     8 ar  
    11     7    30 1   
    12     8     9 ar  
    13     8    17 1   
    14     9    10 1   
    15    10    11 1   
    16    10    19 1   
    17    11    12 1   
    18    11    31 1   
    19    11    32 1   
    20    12    13 1   
    21    12    14 1   
    22    12    33 1   
    23    13    34 1   
    24    13    35 1   
    25    13    36 1   
    26    14    15 1   
    27    15    16 1   
    28    15    19 1   
    29    15    37 1   
    30    16    38 1   
    31    16    39 1   
    32    16    40 1   
    33    17    18 1   
    34    17    41 1   
    35    17    42 1   
    36    18    19 1   
    37    18    20 1   
    38    18    26 1   
    39    19    43 1   
    40    20    21 2   
    41    20    22 1   
    42    22    23 1   
    43    22    44 1   
    44    23    24 2   
    45    23    25 1   
    46    25    26 1   
    47    25    45 1   
    48    26    27 2   
@<TRIPOS>SUBSTRUCTURE
     1 54Q         1 TEMP              0 ****  ****    0 ROOT
