@<TRIPOS>MOLECULE
54Q
   45    48     1     0     0
SMALL
bcc


@<TRIPOS>ATOM
      1 O5           5.6840    -0.5550     1.3070 o          1 54Q      -0.223500
      2 N3           4.7610    -1.1760     0.8180 no         1 54Q       0.325200
      3 O4           4.8110    -2.3700     0.6010 o          1 54Q      -0.223500
      4 C9           3.5630    -0.4690     0.4840 ca         1 54Q      -0.246200
      5 C8           3.4630     0.8950     0.7390 ca         1 54Q      -0.003000
      6 C7           2.3070     1.5700     0.4240 ca         1 54Q      -0.224000
      7 C10          2.4980    -1.1510    -0.1030 ca         1 54Q       0.002000
      8 C11          1.3500    -0.4760    -0.4380 ca         1 54Q      -0.191300
      9 C6           1.2140     0.9020    -0.1610 ca         1 54Q       0.283600
     10 N            0.0530     1.5260    -0.4760 nh         1 54Q      -0.683000
     11 C5          -0.0440     2.9590    -0.6860 c6         1 54Q       0.188800
     12 C3          -1.1330     3.5650     0.1830 c6         1 54Q       0.128100
     13 C4          -1.3400     5.0330    -0.1150 c3         1 54Q      -0.089100
     14 O           -2.3490     2.8860    -0.0620 os         1 54Q      -0.401600
     15 C1          -2.2820     1.5060     0.2240 c6         1 54Q       0.133100
     16 C2          -3.6790     0.9490     0.0310 c3         1 54Q      -0.096100
     17 C12          0.2270    -1.1440    -1.1530 c6         1 54Q      -0.008100
     18 C13         -1.1360    -0.6820    -0.5620 c6         1 54Q      -0.223000
     19 C           -1.2230     0.8500    -0.6910 c6         1 54Q       0.229500
     20 C16         -1.1500    -1.1570     0.8780 c          1 54Q       0.730000
     21 O3          -0.5610    -0.5750     1.7560 o          1 54Q      -0.565500
     22 N2          -1.7950    -2.3390     1.1300 ns         1 54Q      -0.611500
     23 C15         -2.5930    -3.0520     0.2690 c          1 54Q       0.843500
     24 O2          -3.1310    -4.0830     0.5850 o          1 54Q      -0.592500
     25 N1          -2.7480    -2.4930    -0.9780 ns         1 54Q      -0.611500
     26 C14         -2.1870    -1.3390    -1.4490 c          1 54Q       0.730000
     27 O1          -2.4580    -0.9230    -2.5490 o          1 54Q      -0.565500
     28 H12          4.2760     1.4350     1.2030 ha         1 54Q       0.166000
     29 H11          2.2490     2.6200     0.6720 ha         1 54Q       0.144000
     30 H13          2.5720    -2.2060    -0.3270 ha         1 54Q       0.163000
     31 H9           0.9080     3.4420    -0.4860 h1         1 54Q       0.063700
     32 H10         -0.2820     3.1400    -1.7420 h1         1 54Q       0.063700
     33 H2          -0.8470     3.4400     1.2380 h1         1 54Q       0.049700
     34 H7          -1.5990     5.1930    -1.1620 hc         1 54Q       0.050367
     35 H8          -2.1370     5.4460     0.5040 hc         1 54Q       0.050367
     36 H6          -0.4290     5.5930     0.1000 hc         1 54Q       0.050367
     37 H1          -1.9740     1.3730     1.2680 h1         1 54Q       0.059700
     38 H3          -4.0020     1.0120    -1.0090 hc         1 54Q       0.051367
     39 H5          -3.7600    -0.0890     0.3550 hc         1 54Q       0.051367
     40 H4          -4.3850     1.5140     0.6390 hc         1 54Q       0.051367
     41 H14          0.2340    -0.8630    -2.2100 hc         1 54Q       0.073700
     42 H15          0.3220    -2.2300    -1.1090 hc         1 54Q       0.073700
     43 H           -1.5270     1.0510    -1.7260 h1         1 54Q       0.091700
     44 H17         -1.7240    -2.7070     2.0710 hn         1 54Q       0.355000
     45 H16         -3.3740    -2.9850    -1.6050 hn         1 54Q       0.355000
@<TRIPOS>BOND
     1     1     2 1   
     2     2     3 1   
     3     2     4 1   
     4     4     5 ar  
     5     4     7 ar  
     6     5     6 ar  
     7     5    28 1   
     8     6     9 ar  
     9     6    29 1   
    10     7     8 ar  
    11     7    30 1   
    12     8     9 ar  
    13     8    17 1   
    14     9    10 1   
    15    10    11 1   
    16    10    19 1   
    17    11    12 1   
    18    11    31 1   
    19    11    32 1   
    20    12    13 1   
    21    12    14 1   
    22    12    33 1   
    23    13    34 1   
    24    13    35 1   
    25    13    36 1   
    26    14    15 1   
    27    15    16 1   
    28    15    19 1   
    29    15    37 1   
    30    16    38 1   
    31    16    39 1   
    32    16    40 1   
    33    17    18 1   
    34    17    41 1   
    35    17    42 1   
    36    18    19 1   
    37    18    20 1   
    38    18    26 1   
    39    19    43 1   
    40    20    21 2   
    41    20    22 1   
    42    22    23 1   
    43    22    44 1   
    44    23    24 2   
    45    23    25 1   
    46    25    26 1   
    47    25    45 1   
    48    26    27 2   
@<TRIPOS>SUBSTRUCTURE
     1 54Q         1 TEMP              0 ****  ****    0 ROOT
