@<TRIPOS>MOLECULE
54R
   43    44     1     0     0
SMALL
No Charge or Current Charge


@<TRIPOS>ATOM
      1 C1          -8.0340    -0.3420     0.7100 c          1 54R       0.599100
      2 C3          -4.3090    -0.1070    -0.0160 c3         1 54R      -0.100400
      3 C4          -3.3850     0.3910    -1.1430 c3         1 54R       0.163800
      4 C5          -0.9900     0.6260    -1.7700 c3         1 54R       0.207100
      5 C7           1.1470    -0.7550    -1.8220 ca         1 54R      -0.108000
      6 C8           2.4510    -1.0240    -1.3730 ca         1 54R      -0.097000
      7 C9           3.0700    -0.2180    -0.3870 cp         1 54R      -0.024000
      8 C10          2.3240     0.8670     0.1520 ca         1 54R       0.126000
      9 C11          1.0190     1.1310    -0.3000 ca         1 54R      -0.083000
     10 C12          4.4610    -0.5380     0.0560 cp         1 54R      -0.041000
     11 C14          6.7970     0.1230     0.4350 ca         1 54R      -0.113500
     12 C15          7.1060    -1.1790     0.8630 ca         1 54R      -0.103000
     13 C16          6.1050    -2.1640     0.8840 ca         1 54R      -0.113500
     14 C17          4.7970    -1.8470     0.4800 ca         1 54R      -0.089500
     15 Cl           2.9670     1.8960     1.4340 cl         1 54R      -0.201000
     16 C13          5.4880     0.4390     0.0320 ca         1 54R      -0.089500
     17 C6           0.4230     0.3270    -1.2900 ca         1 54R      -0.081300
     18 N1          -1.9760     0.1760    -0.7720 n7         1 54R      -0.866400
     19 C2          -5.7990     0.1010    -0.3420 c3         1 54R       0.106000
     20 N           -6.6610    -0.3770     0.7400 ns         1 54R      -0.510900
     21 O           -8.6580     0.1020    -0.2430 o          1 54R      -0.609100
     22 C           -8.7170    -0.8960     1.9530 c3         1 54R      -0.179100
     23 H1          -4.1250    -1.1740     0.1610 hc         1 54R       0.050700
     24 H2          -4.0660     0.4260     0.9120 hc         1 54R       0.050700
     25 H3          -3.6250    -0.1490    -2.0700 h1         1 54R       0.033700
     26 H4          -3.5760     1.4590    -1.3180 h1         1 54R       0.033700
     27 H5          -1.0870     1.7060    -1.9460 h1         1 54R       0.039700
     28 H6          -1.1600     0.1220    -2.7320 h1         1 54R       0.039700
     29 H7           0.7000    -1.3900    -2.5840 ha         1 54R       0.115000
     30 H8           2.9970    -1.8620    -1.8010 ha         1 54R       0.121000
     31 H9           0.4610     1.9600     0.1290 ha         1 54R       0.144000
     32 H10          7.5720     0.8860     0.4110 ha         1 54R       0.113500
     33 H11          8.1190    -1.4240     1.1750 ha         1 54R       0.113000
     34 H12          6.3430    -3.1740     1.2110 ha         1 54R       0.113500
     35 H13          4.0310    -2.6190     0.5020 ha         1 54R       0.116500
     36 H14          5.2660     1.4470    -0.3120 ha         1 54R       0.116500
     37 H15         -1.8320    -0.8290    -0.6240 hn         1 54R       0.412000
     38 H17         -5.9950     1.1690    -0.5040 h1         1 54R       0.051200
     39 H18         -6.0530    -0.4410    -1.2630 h1         1 54R       0.051200
     40 H19         -6.2310    -0.7620     1.5730 hn         1 54R       0.312500
     41 H20         -8.3640    -1.9190     2.1280 hc         1 54R       0.059033
     42 H21         -8.3390    -0.3660     2.8350 hc         1 54R       0.059033
     43 H22         -9.8100    -0.8510     1.8910 hc         1 54R       0.059033
@<TRIPOS>BOND
     1     1    20 1   
     2     1    21 2   
     3     1    22 1   
     4     2     3 1   
     5     2    19 1   
     6     2    23 1   
     7     2    24 1   
     8     3    18 1   
     9     3    25 1   
    10     3    26 1   
    11     4    17 1   
    12     4    18 1   
    13     4    27 1   
    14     4    28 1   
    15     5     6 ar  
    16     5    17 ar  
    17     5    29 1   
    18     6     7 ar  
    19     6    30 1   
    20     7     8 ar  
    21     7    10 1   
    22     8     9 ar  
    23     8    15 1   
    24     9    17 ar  
    25     9    31 1   
    26    10    14 ar  
    27    10    16 ar  
    28    11    12 ar  
    29    11    16 ar  
    30    11    32 1   
    31    12    13 ar  
    32    12    33 1   
    33    13    14 ar  
    34    13    34 1   
    35    14    35 1   
    36    16    36 1   
    37    18    37 1   
    38    19    20 1   
    39    19    38 1   
    40    19    39 1   
    41    20    40 1   
    42    22    41 1   
    43    22    42 1   
    44    22    43 1   
@<TRIPOS>SUBSTRUCTURE
     1 54R         1 TEMP              0 ****  ****    0 ROOT
