@<TRIPOS>MOLECULE
54R
   43    44     1     0     0
SMALL
bcc


@<TRIPOS>ATOM
      1 C1          -7.9340    -0.0020     0.7480 c          1 54R       0.666100
      2 C3          -4.2910    -0.1940     0.0280 c3         1 54R      -0.100400
      3 C4          -3.3460     0.1520    -1.1110 c3         1 54R       0.163800
      4 C5          -1.0220     0.1930    -1.7840 c3         1 54R       0.207100
      5 C7           1.3310    -0.6780    -2.0740 ca         1 54R      -0.126000
      6 C8           2.6350    -0.8270    -1.6250 ca         1 54R      -0.115000
      7 C9           3.0530    -0.3050    -0.4030 cp         1 54R      -0.024000
      8 C10          2.0940     0.3670     0.3560 ca         1 54R       0.034400
      9 C11          0.7890     0.5210    -0.0780 ca         1 54R      -0.101000
     10 C12          4.4520    -0.4980     0.0390 cp         1 54R      -0.041000
     11 C14          6.6010     0.3930     0.6860 ca         1 54R      -0.131500
     12 C15          7.1060    -0.8940     0.8160 ca         1 54R      -0.121000
     13 C16          6.2870    -1.9840     0.5520 ca         1 54R      -0.131500
     14 C17          4.9690    -1.7860     0.1630 ca         1 54R      -0.107500
     15 CL           2.5040     0.9970     1.9220 cl         1 54R      -0.109400
     16 C13          5.2830     0.5910     0.3020 ca         1 54R      -0.107500
     17 C6           0.3940     0.0050    -1.3090 ca         1 54R      -0.081300
     18 N1          -1.9720    -0.1210    -0.7370 n7         1 54R      -0.811200
     19 C2          -5.7340     0.1250    -0.3230 c3         1 54R       0.106000
     20 N           -6.6130    -0.2280     0.7730 ns         1 54R      -0.577900
     21 O           -8.4920     0.5140    -0.2130 o          1 54R      -0.609100
     22 C           -8.6930    -0.4150     1.9840 c3         1 54R      -0.179100
     23 H1          -4.1990    -1.2590     0.2670 hc         1 54R       0.050700
     24 H2          -3.9930     0.3620     0.9220 hc         1 54R       0.050700
     25 H3          -3.6570    -0.3870    -2.0210 h1         1 54R       0.033700
     26 H4          -3.4300     1.2180    -1.3440 h1         1 54R       0.033700
     27 H5          -1.1680     1.2410    -2.0650 h1         1 54R       0.039700
     28 H6          -1.1770    -0.3910    -2.7040 h1         1 54R       0.039700
     29 H7           1.0450    -1.0990    -3.0300 ha         1 54R       0.133000
     30 H8           3.3530    -1.3580    -2.2370 ha         1 54R       0.139000
     31 H9           0.0680     1.0330     0.5440 ha         1 54R       0.162000
     32 H10          7.2360     1.2480     0.8800 ha         1 54R       0.131500
     33 H11          8.1340    -1.0480     1.1200 ha         1 54R       0.131000
     34 H12          6.6720    -2.9900     0.6520 ha         1 54R       0.131500
     35 H13          4.3330    -2.6400    -0.0340 ha         1 54R       0.134500
     36 H14          4.9040     1.5980     0.1900 ha         1 54R       0.134500
     37 H15         -1.8820    -1.1020    -0.4960 hn         1 54R       0.356800
     38 H17         -5.8340     1.1900    -0.5500 h1         1 54R       0.051200
     39 H18         -6.0290    -0.4190    -1.2250 h1         1 54R       0.051200
     40 H19         -6.2050    -0.6460     1.5930 hn         1 54R       0.312500
     41 H20         -8.0810    -0.9340     2.7200 hc         1 54R       0.059033
     42 H21         -9.1210     0.4690     2.4580 hc         1 54R       0.059033
     43 H22         -9.5210    -1.0640     1.7020 hc         1 54R       0.059033
@<TRIPOS>BOND
     1     1    20 1   
     2     1    21 2   
     3     1    22 1   
     4     2     3 1   
     5     2    19 1   
     6     2    23 1   
     7     2    24 1   
     8     3    18 1   
     9     3    25 1   
    10     3    26 1   
    11     4    17 1   
    12     4    18 1   
    13     4    27 1   
    14     4    28 1   
    15     5     6 ar  
    16     5    17 ar  
    17     5    29 1   
    18     6     7 ar  
    19     6    30 1   
    20     7     8 ar  
    21     7    10 1   
    22     8     9 ar  
    23     8    15 1   
    24     9    17 ar  
    25     9    31 1   
    26    10    14 ar  
    27    10    16 ar  
    28    11    12 ar  
    29    11    16 ar  
    30    11    32 1   
    31    12    13 ar  
    32    12    33 1   
    33    13    14 ar  
    34    13    34 1   
    35    14    35 1   
    36    16    36 1   
    37    18    37 1   
    38    19    20 1   
    39    19    38 1   
    40    19    39 1   
    41    20    40 1   
    42    22    41 1   
    43    22    42 1   
    44    22    43 1   
@<TRIPOS>SUBSTRUCTURE
     1 54R         1 TEMP              0 ****  ****    0 ROOT
