@<TRIPOS>MOLECULE
54S
   59    61     1     0     0
SMALL
bcc


@<TRIPOS>ATOM
      1 C11         -1.1690     1.4310     0.2880 c3         1 54S       0.167800
      2 C12         -3.5390     1.8330     0.0570 c3         1 54S       0.206100
      3 C13         -4.9020     1.1980     0.1310 ca         1 54S      -0.074300
      4 C14         -5.9990     1.8930     0.6250 ca         1 54S      -0.128000
      5 C16         -7.4650     0.0080     0.1850 cp         1 54S      -0.031000
      6 C17         -6.3480    -0.6790    -0.2930 ca         1 54S       0.035400
      7 C18         -5.0880    -0.1050    -0.3200 ca         1 54S      -0.099000
      8 C19         -8.8230    -0.5760     0.2320 cp         1 54S      -0.035000
      9 C20         -9.4670    -1.0040    -0.9280 ca         1 54S      -0.107500
     10 C21        -10.7560    -1.5130    -0.8710 ca         1 54S      -0.132500
     11 C22        -11.4180    -1.6060     0.3470 ca         1 54S      -0.125000
     12 C23        -10.7860    -1.1790     1.5070 ca         1 54S      -0.132500
     13 CL          -6.4990    -2.3220    -0.8350 cl         1 54S      -0.111400
     14 C24         -9.4970    -0.6640     1.4480 ca         1 54S      -0.107500
     15 C15         -7.2540     1.3040     0.6490 ca         1 54S      -0.116000
     16 N2          -2.5090     0.9420     0.5490 n7         1 54S      -0.813200
     17 C10         -0.1370     0.4680     0.8550 c3         1 54S      -0.165400
     18 C9           1.2720     0.8400     0.4490 c          1 54S       0.661100
     19 O3           1.5450     1.1880    -0.6930 o          1 54S      -0.598100
     20 N1           2.1990     0.7480     1.4170 ns         1 54S      -0.575900
     21 C8           3.6060     0.9790     1.1860 c3         1 54S       0.115000
     22 C7           4.2980    -0.2550     0.6170 c3         1 54S      -0.193400
     23 C6           5.7710    -0.0260     0.3470 c          1 54S       0.668100
     24 O2           6.2620     1.0880     0.3090 o          1 54S      -0.569100
     25 N            6.4620    -1.1750     0.1390 ns         1 54S      -0.466100
     26 C5           7.8080    -1.3680    -0.1990 ca         1 54S       0.023600
     27 C4           8.2080    -2.6870    -0.4270 ca         1 54S      -0.210000
     28 C3           9.5200    -2.9690    -0.7640 ca         1 54S      -0.142000
     29 C2          10.4520    -1.9480    -0.8790 ca         1 54S      -0.122000
     30 C25          8.7470    -0.3440    -0.3130 ca         1 54S      -0.115000
     31 C1          10.0680    -0.6300    -0.6520 ca         1 54S      -0.116600
     32 C           11.0830     0.5040    -0.7670 c          1 54S       0.921200
     33 O1          10.6680     1.6550    -0.5340 o          1 54S      -0.821800
     34 O           12.2430     0.1800    -1.0840 o          1 54S      -0.821800
     35 H1          -1.0400     1.5060    -0.7940 h1         1 54S       0.047700
     36 H2          -0.9910     2.4380     0.6950 h1         1 54S       0.047700
     37 H3          -3.3140     2.0570    -0.9910 h1         1 54S       0.041200
     38 H4          -3.5620     2.8030     0.5750 h1         1 54S       0.041200
     39 H5          -5.8760     2.9040     0.9940 ha         1 54S       0.133000
     40 H6          -4.2410    -0.6710    -0.6830 ha         1 54S       0.166000
     41 H7          -8.9660    -0.9240    -1.8840 ha         1 54S       0.135500
     42 H8         -11.2460    -1.8330    -1.7810 ha         1 54S       0.129500
     43 H9         -12.4220    -2.0070     0.3920 ha         1 54S       0.128000
     44 H10        -11.2930    -1.2490     2.4600 ha         1 54S       0.129500
     45 H11         -9.0080    -0.3390     2.3580 ha         1 54S       0.135500
     46 H12         -8.0990     1.8640     1.0320 ha         1 54S       0.136000
     47 H13         -2.6350     0.8140     1.5460 hn         1 54S       0.351800
     48 H15         -0.2310     0.4110     1.9420 hc         1 54S       0.060700
     49 H16         -0.3380    -0.5370     0.4690 hc         1 54S       0.060700
     50 H17          1.9160     0.4270     2.3280 hn         1 54S       0.305500
     51 H18          3.7210     1.8250     0.5110 h1         1 54S       0.072700
     52 H19          4.0560     1.2600     2.1370 h1         1 54S       0.072700
     53 H20          4.1710    -1.1020     1.2970 hc         1 54S       0.058200
     54 H21          3.8210    -0.5430    -0.3250 hc         1 54S       0.058200
     55 H22          5.9220    -2.0250     0.2070 hn         1 54S       0.295500
     56 H23          7.4870    -3.4930    -0.3420 ha         1 54S       0.095000
     57 H24          9.8130    -3.9970    -0.9370 ha         1 54S       0.103000
     58 H25         11.4760    -2.1720    -1.1430 ha         1 54S       0.147000
     59 H26          8.4700     0.6810    -0.1390 ha         1 54S       0.180000
@<TRIPOS>BOND
     1     1    16 1   
     2     1    17 1   
     3     1    35 1   
     4     1    36 1   
     5     2     3 1   
     6     2    16 1   
     7     2    37 1   
     8     2    38 1   
     9     3     4 ar  
    10     3     7 ar  
    11     4    15 ar  
    12     4    39 1   
    13     5     6 ar  
    14     5     8 1   
    15     5    15 ar  
    16     6     7 ar  
    17     6    13 1   
    18     7    40 1   
    19     8     9 ar  
    20     8    14 ar  
    21     9    10 ar  
    22     9    41 1   
    23    10    11 ar  
    24    10    42 1   
    25    11    12 ar  
    26    11    43 1   
    27    12    14 ar  
    28    12    44 1   
    29    14    45 1   
    30    15    46 1   
    31    16    47 1   
    32    17    18 1   
    33    17    48 1   
    34    17    49 1   
    35    18    19 2   
    36    18    20 1   
    37    20    21 1   
    38    20    50 1   
    39    21    22 1   
    40    21    51 1   
    41    21    52 1   
    42    22    23 1   
    43    22    53 1   
    44    22    54 1   
    45    23    24 2   
    46    23    25 1   
    47    25    26 1   
    48    25    55 1   
    49    26    27 ar  
    50    26    30 ar  
    51    27    28 ar  
    52    27    56 1   
    53    28    29 ar  
    54    28    57 1   
    55    29    31 ar  
    56    29    58 1   
    57    30    31 ar  
    58    30    59 1   
    59    31    32 1   
    60    32    33 1   
    61    32    34 1   
@<TRIPOS>SUBSTRUCTURE
     1 54S         1 TEMP              0 ****  ****    0 ROOT
