@<TRIPOS>MOLECULE
54S
   59    61     1     0     0
SMALL
No Charge or Current Charge


@<TRIPOS>ATOM
      1 C11         -1.1560     1.2380    -0.5310 c3         1 54S       0.167800
      2 C12         -3.5260     1.8530    -0.0840 c3         1 54S       0.206100
      3 C13         -4.9140     1.2630     0.1220 ca         1 54S      -0.074300
      4 C14         -5.4770     1.1860     1.4080 ca         1 54S      -0.110000
      5 C16         -7.5150     0.1610     0.4910 cp         1 54S      -0.031000
      6 C17         -6.9300     0.2330    -0.8030 ca         1 54S       0.127000
      7 C18         -5.6470     0.7800    -0.9780 ca         1 54S      -0.081000
      8 C19         -8.8770    -0.4070     0.7300 cp         1 54S      -0.035000
      9 C20        -10.0110     0.0710     0.0280 ca         1 54S      -0.089500
     10 C21        -11.2900    -0.4580     0.2720 ca         1 54S      -0.114500
     11 C22        -11.4590    -1.4730     1.2290 ca         1 54S      -0.107000
     12 C23        -10.3500    -1.9520     1.9440 ca         1 54S      -0.114500
     13 Cl          -7.7500    -0.3960    -2.2340 cl         1 54S      -0.203000
     14 C24         -9.0720    -1.4210     1.6990 ca         1 54S      -0.089500
     15 C15         -6.7580     0.6400     1.5890 ca         1 54S      -0.098000
     16 N2          -2.5440     0.7830    -0.3390 n7         1 54S      -0.868400
     17 C10         -0.2530     0.0280    -0.8070 c3         1 54S      -0.165400
     18 C9           1.1900     0.4800    -1.0150 c          1 54S       0.594100
     19 O3           1.5630     1.0420    -2.0350 o          1 54S      -0.598100
     20 N1           2.0510     0.1800     0.0170 ns         1 54S      -0.508900
     21 C8           3.4850     0.4810     0.0250 c3         1 54S       0.115000
     22 C7           4.2890    -0.5610    -0.7750 c3         1 54S      -0.193400
     23 C6           5.7860    -0.2460    -0.7210 c          1 54S       0.601100
     24 O2           6.2610     0.6890    -1.3530 o          1 54S      -0.569100
     25 N            6.5260    -1.1240     0.0640 ns         1 54S      -0.140000
     26 C5           7.9110    -1.1980     0.3830 ca         1 54S      -0.069000
     27 C4           8.3310    -2.2780     1.1770 ca         1 54S      -0.192000
     28 C3           9.6790    -2.4190     1.5350 ca         1 54S      -0.124000
     29 C2          10.6250    -1.4760     1.1050 ca         1 54S      -0.104000
     30 C25          8.8670    -0.2480    -0.0470 ca         1 54S      -0.097000
     31 C1          10.2330    -0.3760     0.3070 ca         1 54S      -0.116600
     32 C           11.2580     0.6500    -0.1590 c          1 54S       0.710600
     33 O1          10.8780     1.5910    -0.8420 o          1 54S      -0.716500
     34 O           12.4280     0.4990     0.1660 o          1 54S      -0.716500
     35 H1          -1.0940     1.9360    -1.3790 h1         1 54S       0.047700
     36 H2          -0.7930     1.7640     0.3630 h1         1 54S       0.047700
     37 H3          -3.5580     2.5540    -0.9290 h1         1 54S       0.041200
     38 H4          -3.2420     2.4310     0.8070 h1         1 54S       0.041200
     39 H5          -4.9220     1.5500     2.2710 ha         1 54S       0.115000
     40 H6          -5.2130     0.8200    -1.9740 ha         1 54S       0.148000
     41 H7          -9.8960     0.8660    -0.7050 ha         1 54S       0.117500
     42 H8         -12.1490    -0.0800    -0.2780 ha         1 54S       0.111500
     43 H9         -12.4490    -1.8830     1.4180 ha         1 54S       0.110000
     44 H10        -10.4800    -2.7350     2.6880 ha         1 54S       0.111500
     45 H11         -8.2200    -1.8020     2.2580 ha         1 54S       0.117500
     46 H12         -7.1790     0.5950     2.5910 ha         1 54S       0.118000
     47 H13         -2.5670     0.1430     0.4630 hn         1 54S       0.407000
     48 H15         -0.3150    -0.6630     0.0420 hc         1 54S       0.060700
     49 H16         -0.6030    -0.4670    -1.7210 hc         1 54S       0.060700
     50 H17          1.6530    -0.2940     0.8200 hn         1 54S       0.305500
     51 H18          3.6470     1.4830    -0.3970 h1         1 54S       0.072700
     52 H19          3.8340     0.4960     1.0670 h1         1 54S       0.072700
     53 H20          4.0940    -1.5540    -0.3510 hc         1 54S       0.058200
     54 H21          3.9600    -0.5310    -1.8200 hc         1 54S       0.058200
     55 H22          5.9730    -1.8530     0.4970 hn         1 54S       0.129000
     56 H23          7.6080    -3.0170     1.5180 ha         1 54S       0.077000
     57 H24          9.9930    -3.2600     2.1490 ha         1 54S       0.085000
     58 H25         11.6660    -1.6040     1.3940 ha         1 54S       0.129000
     59 H26          8.5670     0.5990    -0.6550 ha         1 54S       0.162000
@<TRIPOS>BOND
     1     1    16 1   
     2     1    17 1   
     3     1    35 1   
     4     1    36 1   
     5     2     3 1   
     6     2    16 1   
     7     2    37 1   
     8     2    38 1   
     9     3     4 ar  
    10     3     7 ar  
    11     4    15 ar  
    12     4    39 1   
    13     5     6 ar  
    14     5     8 1   
    15     5    15 ar  
    16     6     7 ar  
    17     6    13 1   
    18     7    40 1   
    19     8     9 ar  
    20     8    14 ar  
    21     9    10 ar  
    22     9    41 1   
    23    10    11 ar  
    24    10    42 1   
    25    11    12 ar  
    26    11    43 1   
    27    12    14 ar  
    28    12    44 1   
    29    14    45 1   
    30    15    46 1   
    31    16    47 1   
    32    17    18 1   
    33    17    48 1   
    34    17    49 1   
    35    18    19 2   
    36    18    20 1   
    37    20    21 1   
    38    20    50 1   
    39    21    22 1   
    40    21    51 1   
    41    21    52 1   
    42    22    23 1   
    43    22    53 1   
    44    22    54 1   
    45    23    24 2   
    46    23    25 1   
    47    25    26 1   
    48    25    55 1   
    49    26    27 ar  
    50    26    30 ar  
    51    27    28 ar  
    52    27    56 1   
    53    28    29 ar  
    54    28    57 1   
    55    29    31 ar  
    56    29    58 1   
    57    30    31 ar  
    58    30    59 1   
    59    31    32 1   
    60    32    33 1   
    61    32    34 1   
@<TRIPOS>SUBSTRUCTURE
     1 54S         1 TEMP              0 ****  ****    0 ROOT
