@<TRIPOS>MOLECULE
54T
   16    17     1     0     0
SMALL
bcc


@<TRIPOS>ATOM
      1 N1           1.9920    -1.2300    -0.0280 nc         1 54T      -0.641100
      2 C4          -0.9550     0.9180     0.0030 ca         1 54T      -0.070000
      3 C5          -1.9690    -0.0270    -0.0040 ca         1 54T       0.013400
      4 C6           2.7100    -0.1550    -0.0140 cd         1 54T       0.668100
      5 CL          -3.6180     0.5080    -0.0020 cl         1 54T      -0.111400
      6 C           -1.6960    -1.3920    -0.0130 ca         1 54T      -0.109000
      7 C3           0.3470     0.4500    -0.0040 ca         1 54T      -0.063100
      8 S            1.8220     1.3690     0.0040 ss         1 54T      -0.164100
      9 N            4.0460    -0.1360    -0.0130 nv         1 54T      -0.934800
     10 C2           0.6580    -0.9210    -0.0180 ca         1 54T       0.151400
     11 C1          -0.3870    -1.8410    -0.0180 ca         1 54T      -0.093000
     12 H1          -1.1760     1.9760     0.0130 ha         1 54T       0.154000
     13 H2          -2.5100    -2.1040    -0.0170 ha         1 54T       0.149000
     14 H3           4.5500    -1.0040    -0.0080 hn         1 54T       0.449300
     15 H4           4.5810     0.7100     0.0170 hn         1 54T       0.449300
     16 H5          -0.1750    -2.9010    -0.0250 ha         1 54T       0.152000
@<TRIPOS>BOND
     1     1     4 2   
     2     1    10 1   
     3     2     3 ar  
     4     2     7 ar  
     5     2    12 1   
     6     3     5 1   
     7     3     6 ar  
     8     4     8 1   
     9     4     9 1   
    10     6    11 ar  
    11     6    13 1   
    12     7     8 1   
    13     7    10 ar  
    14     9    14 1   
    15     9    15 1   
    16    10    11 ar  
    17    11    16 1   
@<TRIPOS>SUBSTRUCTURE
     1 54T         1 TEMP              0 ****  ****    0 ROOT
