@<TRIPOS>MOLECULE
54T
   16    17     1     0     0
SMALL
No Charge or Current Charge


@<TRIPOS>ATOM
      1 N1           2.0450    -1.2250    -0.0910 nc         1 54T      -0.641100
      2 C4          -0.9500     0.9200    -0.0020 ca         1 54T      -0.052000
      3 C5          -1.9880    -0.0300     0.0200 ca         1 54T       0.105000
      4 C6           2.6970    -0.0730    -0.1050 cd         1 54T       0.668100
      5 Cl          -3.6640     0.5010     0.0660 cl         1 54T      -0.203000
      6 C           -1.6860    -1.4060     0.0050 ca         1 54T      -0.091000
      7 C3           0.3760     0.4620    -0.0390 ca         1 54T      -0.190000
      8 S            1.8110     1.4710    -0.0710 ss         1 54T      -0.037200
      9 N            4.0360    -0.1690    -0.1300 nv         1 54T      -1.045200
     10 C2           0.6930    -0.8880    -0.0540 ca         1 54T       0.151400
     11 C1          -0.3430    -1.8380    -0.0320 ca         1 54T      -0.075000
     12 H1          -1.1750     1.9840     0.0090 ha         1 54T       0.136000
     13 H2          -2.4900    -2.1370     0.0230 ha         1 54T       0.131000
     14 H3           4.4010    -1.0810     0.1140 hn         1 54T       0.504500
     15 H4           4.5660     0.6280     0.2030 hn         1 54T       0.504500
     16 H5          -0.1090    -2.8990    -0.0430 ha         1 54T       0.134000
@<TRIPOS>BOND
     1     1     4 2   
     2     1    10 1   
     3     2     3 ar  
     4     2     7 ar  
     5     2    12 1   
     6     3     5 1   
     7     3     6 ar  
     8     4     8 1   
     9     4     9 1   
    10     6    11 ar  
    11     6    13 1   
    12     7     8 1   
    13     7    10 ar  
    14     9    14 1   
    15     9    15 1   
    16    10    11 ar  
    17    11    16 1   
@<TRIPOS>SUBSTRUCTURE
     1 54T         1 TEMP              0 ****  ****    0 ROOT
