@<TRIPOS>MOLECULE
54U
   32    33     1     0     0
SMALL
No Charge or Current Charge


@<TRIPOS>ATOM
      1 C10         -2.2460     1.0160    -0.5430 ca         1 54U      -0.108000
      2 C13         -3.5170    -1.2270     0.5620 ca         1 54U      -0.152000
      3 C01          4.7600     1.0400     1.0030 c3         1 54U      -0.177100
      4 N03          2.8740     0.0910    -0.4080 n          1 54U      -0.417800
      5 C04          2.1220    -1.0100    -1.0680 c6         1 54U       0.095500
      6 C05          0.7600    -1.2730    -0.3670 c6         1 54U       0.170800
      7 N06         -0.0510    -0.0220    -0.2260 nh         1 54U      -0.775400
      8 C07          0.7110     1.1250     0.3630 c6         1 54U       0.170800
      9 C08          2.0750     1.3490    -0.3500 c6         1 54U       0.095500
     10 C09         -1.4630    -0.0710    -0.1030 ca         1 54U       0.236000
     11 C11         -3.6490     0.9850    -0.4310 ca         1 54U      -0.152000
     12 C12         -4.2830    -0.1380     0.1220 ca         1 54U       0.115100
     13 C14         -2.1140    -1.1960     0.4490 ca         1 54U      -0.108000
     14 O15         -5.6410    -0.1780     0.2350 oh         1 54U      -0.534100
     15 O16          4.5120    -1.2700     0.4510 o          1 54U      -0.605100
     16 H1          -1.7660     1.8840    -0.9840 ha         1 54U       0.116000
     17 H2          -4.0070    -2.0970     0.9920 ha         1 54U       0.120000
     18 H3           5.7120     0.7520     1.4630 hc         1 54U       0.059700
     19 H4           4.8930     1.8390     0.2650 hc         1 54U       0.059700
     20 H5           4.0920     1.4960     1.7420 hc         1 54U       0.059700
     21 H6           1.9350    -0.7320    -2.1150 h1         1 54U       0.060450
     22 H7           0.2080    -2.0210    -0.9550 h1         1 54U       0.044700
     23 H8           0.1310     2.0560     0.3020 h1         1 54U       0.044700
     24 H9           0.8990     0.9320     1.4300 h1         1 54U       0.044700
     25 H10          2.6150     2.1600     0.1540 h1         1 54U       0.060450
     26 H11          1.8830     1.6890    -1.3780 h1         1 54U       0.060450
     27 H12         -4.2330     1.8350    -0.7790 ha         1 54U       0.120000
     28 H13         -1.5380    -2.0450     0.8040 ha         1 54U       0.116000
     29 H14         -6.0090     0.6600    -0.1180 ho         1 54U       0.462000
     30 H15          2.7080    -1.9390    -1.0840 h1         1 54U       0.060450
     31 H16          0.9500    -1.7070     0.6260 h1         1 54U       0.044700
     32 C02          4.0450    -0.1440     0.3490 c          1 54U       0.609100
@<TRIPOS>BOND
     1     1    10 ar  
     2     1    11 ar  
     3     1    16 1   
     4     2    12 ar  
     5     2    13 ar  
     6     2    17 1   
     7     3    18 1   
     8     3    19 1   
     9     3    20 1   
    10     3    32 1   
    11     4     5 1   
    12     4     9 1   
    13     4    32 1   
    14     5     6 1   
    15     5    21 1   
    16     5    30 1   
    17     6     7 1   
    18     6    22 1   
    19     6    31 1   
    20     7     8 1   
    21     7    10 1   
    22     8     9 1   
    23     8    23 1   
    24     8    24 1   
    25     9    25 1   
    26     9    26 1   
    27    10    13 ar  
    28    11    12 ar  
    29    11    27 1   
    30    12    14 1   
    31    13    28 1   
    32    14    29 1   
    33    15    32 2   
@<TRIPOS>SUBSTRUCTURE
     1 54U         1 TEMP              0 ****  ****    0 ROOT
