@<TRIPOS>MOLECULE
54U
   32    33     1     0     0
SMALL
abcg2


@<TRIPOS>ATOM
      1 C10         -2.2160     1.0450    -0.5410 ca         1 54U      -0.108000
      2 C13         -3.4350    -1.2130     0.4790 ca         1 54U      -0.152000
      3 C01          4.6540     1.0710     0.9510 c3         1 54U      -0.177100
      4 N03          2.7990     0.0410    -0.2660 n          1 54U      -0.417800
      5 C04          2.1030    -1.0490    -0.9210 c6         1 54U       0.095500
      6 C05          0.7120    -1.2270    -0.3350 c6         1 54U       0.170800
      7 N06         -0.0270     0.0150    -0.4180 nh         1 54U      -0.775400
      8 C07          0.6680     1.0950     0.2670 c6         1 54U       0.170800
      9 C08          2.0610     1.2860    -0.3070 c6         1 54U       0.095500
     10 C09         -1.4150    -0.0490    -0.2000 ca         1 54U       0.236000
     11 C11         -3.5880     1.0220    -0.3640 ca         1 54U      -0.152000
     12 C12         -4.2150    -0.1140     0.1450 ca         1 54U       0.115100
     13 C14         -2.0550    -1.1750     0.3180 ca         1 54U      -0.108000
     14 O15         -5.5530    -0.1940     0.3280 oh         1 54U      -0.534100
     15 O16          4.5870    -1.2170     0.2870 o          1 54U      -0.605100
     16 H1          -1.7650     1.9320    -0.9690 ha         1 54U       0.116000
     17 H2          -3.9030    -2.1050     0.8780 ha         1 54U       0.120000
     18 H3           5.6330     0.7880     1.3290 hc         1 54U       0.059700
     19 H4           4.7800     1.8970     0.2520 hc         1 54U       0.059700
     20 H5           4.0580     1.4370     1.7880 hc         1 54U       0.059700
     21 H6           2.0220    -0.8340    -1.9920 h1         1 54U       0.060450
     22 H7           0.1950    -1.9960    -0.9100 h1         1 54U       0.044700
     23 H8           0.1190     2.0280     0.1460 h1         1 54U       0.044700
     24 H9           0.7430     0.8970     1.3480 h1         1 54U       0.044700
     25 H10          2.5700     2.0610     0.2580 h1         1 54U       0.060450
     26 H11          1.9830     1.6290    -1.3440 h1         1 54U       0.060450
     27 H12         -4.1740     1.8910    -0.6450 ha         1 54U       0.120000
     28 H13         -1.4880    -2.0480     0.6130 ha         1 54U       0.116000
     29 H14         -5.9760     0.6200     0.0370 ho         1 54U       0.462000
     30 H15          2.6710    -1.9680    -0.8060 h1         1 54U       0.060450
     31 H16          0.8040    -1.5930     0.7000 h1         1 54U       0.044700
     32 C02          4.0160    -0.1330     0.2980 c          1 54U       0.609100
@<TRIPOS>BOND
     1     1    10 ar  
     2     1    11 ar  
     3     1    16 1   
     4     2    12 ar  
     5     2    13 ar  
     6     2    17 1   
     7     3    18 1   
     8     3    19 1   
     9     3    20 1   
    10     3    32 1   
    11     4     5 1   
    12     4     9 1   
    13     4    32 1   
    14     5     6 1   
    15     5    21 1   
    16     5    30 1   
    17     6     7 1   
    18     6    22 1   
    19     6    31 1   
    20     7     8 1   
    21     7    10 1   
    22     8     9 1   
    23     8    23 1   
    24     8    24 1   
    25     9    25 1   
    26     9    26 1   
    27    10    13 ar  
    28    11    12 ar  
    29    11    27 1   
    30    12    14 1   
    31    13    28 1   
    32    14    29 1   
    33    15    32 2   
@<TRIPOS>SUBSTRUCTURE
     1 54U         1 TEMP              0 ****  ****    0 ROOT
