@<TRIPOS>MOLECULE
54V
   38    39     1     0     0
SMALL
No Charge or Current Charge


@<TRIPOS>ATOM
      1 N1          -2.3130    -0.7160     0.1410 n3         1 54V      -0.724600
      2 C4          -3.3980     1.5290    -0.3630 c6         1 54V       0.164300
      3 C5          -1.2690    -1.4690     0.8750 c3         1 54V       0.211100
      4 C6           0.1530    -1.0230     0.5410 ca         1 54V      -0.054300
      5 C7           0.9390    -0.3560     1.4980 ca         1 54V      -0.120000
      6 C8           2.2470     0.0560     1.1870 ca         1 54V      -0.057500
      7 C10          2.0000    -0.8650    -1.0500 ca         1 54V      -0.057500
      8 C13          6.2030     1.3330     0.3310 c3         1 54V       0.153900
      9 O            4.6960     0.0350    -1.5510 o          1 54V      -0.491000
     10 O1           4.8570     0.8790     0.5690 os         1 54V      -0.441100
     11 C9           2.7940    -0.1950    -0.0930 ca         1 54V      -0.146600
     12 C11          0.6930    -1.2750    -0.7340 ca         1 54V      -0.120000
     13 C2          -3.6840    -1.2700     0.3660 c6         1 54V       0.165300
     14 C1          -4.7790    -0.4930    -0.4350 c6         1 54V       0.164300
     15 C3          -2.3010     0.7530     0.4350 c6         1 54V       0.165300
     16 N           -4.7680     0.9720    -0.1380 n3         1 54V      -0.718600
     17 C           -5.8150     1.7140    -0.8720 c3         1 54V       0.154100
     18 H2          -3.3640     2.5870    -0.0670 h1         1 54V       0.037950
     19 H3          -3.1450     1.4860    -1.4330 h1         1 54V       0.037950
     20 H4          -1.4300    -1.3760     1.9580 h1         1 54V       0.041700
     21 H5          -1.3490    -2.5390     0.6370 h1         1 54V       0.041700
     22 H6           0.5360    -0.1520     2.4880 ha         1 54V       0.124500
     23 H7           2.8280     0.5710     1.9500 ha         1 54V       0.132000
     24 H8           2.3920    -1.0700    -2.0440 ha         1 54V       0.132000
     25 H9           6.8610     0.4920     0.0800 h1         1 54V       0.048700
     26 H10          6.2320     2.0560    -0.4950 h1         1 54V       0.048700
     27 H11          6.6040     1.8240     1.2260 h1         1 54V       0.048700
     28 H12          0.0920    -1.7850    -1.4840 ha         1 54V       0.124500
     29 H13         -3.7200    -2.3280     0.0700 h1         1 54V       0.040200
     30 H14         -3.9380    -1.2270     1.4350 h1         1 54V       0.040200
     31 H15         -4.6120    -0.6620    -1.5090 h1         1 54V       0.037950
     32 H16         -5.7620    -0.9230    -0.1920 h1         1 54V       0.037950
     33 H17         -2.4640     0.9240     1.5100 h1         1 54V       0.040200
     34 H18         -1.3230     1.1880     0.1860 h1         1 54V       0.040200
     35 H20         -5.6570     1.6440    -1.9570 h1         1 54V       0.030700
     36 H21         -6.8100     1.3090    -0.6420 h1         1 54V       0.030700
     37 H22         -5.8080     2.7750    -0.5900 h1         1 54V       0.030700
     38 C12          4.1980     0.2390    -0.4510 c          1 54V       0.606700
@<TRIPOS>BOND
     1     1     3 1   
     2     1    13 1   
     3     1    15 1   
     4     2    15 1   
     5     2    16 1   
     6     2    18 1   
     7     2    19 1   
     8     3     4 1   
     9     3    20 1   
    10     3    21 1   
    11     4     5 ar  
    12     4    12 ar  
    13     5     6 ar  
    14     5    22 1   
    15     6    11 ar  
    16     6    23 1   
    17     7    11 ar  
    18     7    12 ar  
    19     7    24 1   
    20     8    10 1   
    21     8    25 1   
    22     8    26 1   
    23     8    27 1   
    24     9    38 2   
    25    10    38 1   
    26    11    38 1   
    27    12    28 1   
    28    13    14 1   
    29    13    29 1   
    30    13    30 1   
    31    14    16 1   
    32    14    31 1   
    33    14    32 1   
    34    15    33 1   
    35    15    34 1   
    36    16    17 1   
    37    17    35 1   
    38    17    36 1   
    39    17    37 1   
@<TRIPOS>SUBSTRUCTURE
     1 54V         1 TEMP              0 ****  ****    0 ROOT
