@<TRIPOS>MOLECULE
54V
   38    39     1     0     0
SMALL
abcg2


@<TRIPOS>ATOM
      1 N1          -2.2980    -0.5550     0.2770 n3         1 54V      -0.724600
      2 C4          -3.4720     1.4540    -0.4580 c6         1 54V       0.164300
      3 C5          -1.2690    -1.1310     1.1110 c3         1 54V       0.211100
      4 C6           0.1200    -0.7150     0.7020 ca         1 54V      -0.054300
      5 C7           1.1060    -0.5170     1.6630 ca         1 54V      -0.120000
      6 C8           2.4020    -0.1830     1.3010 ca         1 54V      -0.057500
      7 C10          1.7480    -0.2260    -1.0110 ca         1 54V      -0.057500
      8 C13          6.2870     0.8610     0.1980 c3         1 54V       0.153900
      9 O            4.4160     0.4590    -1.6520 o          1 54V      -0.491000
     10 O1           4.9420     0.5000     0.5150 os         1 54V      -0.441100
     11 C9           2.7350    -0.0340    -0.0440 ca         1 54V      -0.146600
     12 C11          0.4580    -0.5620    -0.6420 ca         1 54V      -0.120000
     13 C2          -3.5770    -1.2160     0.4570 c6         1 54V       0.165300
     14 C1          -4.6100    -0.6330    -0.4880 c6         1 54V       0.164300
     15 C3          -2.4350     0.8740     0.4840 c6         1 54V       0.165300
     16 N           -4.7500     0.7930    -0.2810 n3         1 54V      -0.718600
     17 C           -5.7710     1.3590    -1.1300 c3         1 54V       0.154100
     18 H2          -3.5890     2.5190    -0.2460 h1         1 54V       0.037950
     19 H3          -3.1070     1.3680    -1.4970 h1         1 54V       0.037950
     20 H4          -1.4160    -0.9010     2.1800 h1         1 54V       0.041700
     21 H5          -1.3340    -2.2210     1.0260 h1         1 54V       0.041700
     22 H6           0.8600    -0.6200     2.7130 ha         1 54V       0.124500
     23 H7           3.1420    -0.0350     2.0750 ha         1 54V       0.132000
     24 H8           1.9890    -0.1090    -2.0590 ha         1 54V       0.132000
     25 H9           6.7770     0.0860    -0.3910 h1         1 54V       0.048700
     26 H10          6.3270     1.8050    -0.3440 h1         1 54V       0.048700
     27 H11          6.7980     0.9690     1.1500 h1         1 54V       0.048700
     28 H12         -0.3030    -0.6960    -1.4000 ha         1 54V       0.124500
     29 H13         -3.4610    -2.2810     0.2430 h1         1 54V       0.040200
     30 H14         -3.9410    -1.1290     1.4940 h1         1 54V       0.040200
     31 H15         -4.3190    -0.8670    -1.5270 h1         1 54V       0.037950
     32 H16         -5.5720    -1.1180    -0.3060 h1         1 54V       0.037950
     33 H17         -2.7210     1.1020     1.5250 h1         1 54V       0.040200
     34 H18         -1.4770     1.3640     0.2970 h1         1 54V       0.040200
     35 H20         -5.5600     1.2420    -2.2050 h1         1 54V       0.030700
     36 H21         -6.7320     0.8830    -0.9270 h1         1 54V       0.030700
     37 H22         -5.8780     2.4260    -0.9270 h1         1 54V       0.030700
     38 C12          4.1010     0.3300    -0.4930 c          1 54V       0.606700
@<TRIPOS>BOND
     1     1     3 1   
     2     1    13 1   
     3     1    15 1   
     4     2    15 1   
     5     2    16 1   
     6     2    18 1   
     7     2    19 1   
     8     3     4 1   
     9     3    20 1   
    10     3    21 1   
    11     4     5 ar  
    12     4    12 ar  
    13     5     6 ar  
    14     5    22 1   
    15     6    11 ar  
    16     6    23 1   
    17     7    11 ar  
    18     7    12 ar  
    19     7    24 1   
    20     8    10 1   
    21     8    25 1   
    22     8    26 1   
    23     8    27 1   
    24     9    38 2   
    25    10    38 1   
    26    11    38 1   
    27    12    28 1   
    28    13    14 1   
    29    13    29 1   
    30    13    30 1   
    31    14    16 1   
    32    14    31 1   
    33    14    32 1   
    34    15    33 1   
    35    15    34 1   
    36    16    17 1   
    37    17    35 1   
    38    17    36 1   
    39    17    37 1   
@<TRIPOS>SUBSTRUCTURE
     1 54V         1 TEMP              0 ****  ****    0 ROOT
