@<TRIPOS>MOLECULE
54W
   25    25     1     0     0
SMALL
No Charge or Current Charge


@<TRIPOS>ATOM
      1 C4           1.4680     0.0380    -0.5070 ca         1 54W      -0.083300
      2 C5           2.1210     1.2410    -0.1730 ca         1 54W      -0.104000
      3 C6           3.4330     1.2190     0.3320 ca         1 54W      -0.108000
      4 C7           4.0980    -0.0060     0.5090 ca         1 54W      -0.107000
      5 C8           3.4510    -1.2090     0.1800 ca         1 54W      -0.108000
      6 O           -3.4440    -0.1290     1.5620 o          1 54W      -0.607100
      7 C1          -3.4960    -0.0520     0.3430 c          1 54W       0.598100
      8 C           -4.8130    -0.0140    -0.4220 c3         1 54W      -0.179100
      9 N           -2.3690     0.0060    -0.4410 ns         1 54W      -0.512900
     10 C2          -1.0010    -0.0170     0.0790 c3         1 54W       0.106000
     11 C3           0.0450     0.0620    -1.0490 c3         1 54W      -0.048100
     12 C9           2.1390    -1.1870    -0.3260 ca         1 54W      -0.104000
     13 H1           1.6130     2.1940    -0.3050 ha         1 54W       0.111000
     14 H2           3.9330     2.1510     0.5880 ha         1 54W       0.113000
     15 H3           5.1130    -0.0230     0.9010 ha         1 54W       0.113000
     16 H4           3.9640    -2.1580     0.3180 ha         1 54W       0.113000
     17 H5          -4.8320     0.8810    -1.0550 hc         1 54W       0.058700
     18 H6          -4.8190    -0.8220    -1.1620 hc         1 54W       0.058700
     19 H7          -5.6870    -0.0620     0.2370 hc         1 54W       0.058700
     20 H8          -2.5110     0.0680    -1.4420 hn         1 54W       0.310500
     21 H9          -0.8660     0.8330     0.7620 h1         1 54W       0.055700
     22 H10         -0.8530    -0.9430     0.6500 h1         1 54W       0.055700
     23 H11         -0.1220     0.9770    -1.6300 hc         1 54W       0.048700
     24 H12         -0.1090    -0.7760    -1.7400 hc         1 54W       0.048700
     25 H13          1.6440    -2.1230    -0.5760 ha         1 54W       0.111000
@<TRIPOS>BOND
     1     1     2 ar  
     2     1    11 1   
     3     1    12 ar  
     4     2     3 ar  
     5     2    13 1   
     6     3     4 ar  
     7     3    14 1   
     8     4     5 ar  
     9     4    15 1   
    10     5    12 ar  
    11     5    16 1   
    12     6     7 2   
    13     7     8 1   
    14     7     9 1   
    15     8    17 1   
    16     8    18 1   
    17     8    19 1   
    18     9    10 1   
    19     9    20 1   
    20    10    11 1   
    21    10    21 1   
    22    10    22 1   
    23    11    23 1   
    24    11    24 1   
    25    12    25 1   
@<TRIPOS>SUBSTRUCTURE
     1 54W         1 TEMP              0 ****  ****    0 ROOT
