@<TRIPOS>MOLECULE
54W
   25    25     1     0     0
SMALL
bcc


@<TRIPOS>ATOM
      1 C4           1.4460    -0.0070    -0.5370 ca         1 54W      -0.083300
      2 C5           2.1070     1.1920    -0.2830 ca         1 54W      -0.122000
      3 C6           3.3880     1.1990     0.2540 ca         1 54W      -0.126000
      4 C7           4.0280     0.0020     0.5460 ca         1 54W      -0.125000
      5 C8           3.3780    -1.2000     0.2960 ca         1 54W      -0.126000
      6 O           -3.3440     0.0430     1.5230 o          1 54W      -0.607100
      7 C1          -3.4140     0.0270     0.3000 c          1 54W       0.665100
      8 C           -4.7380     0.0320    -0.4220 c3         1 54W      -0.179100
      9 N           -2.3230     0.0050    -0.4800 ns         1 54W      -0.579900
     10 C2          -0.9790     0.0030     0.0550 c3         1 54W       0.106000
     11 C3           0.0430    -0.0110    -1.0770 c3         1 54W      -0.048100
     12 C9           2.0980    -1.2020    -0.2400 ca         1 54W      -0.122000
     13 H1           1.6170     2.1310    -0.5110 ha         1 54W       0.129000
     14 H2           3.8870     2.1410     0.4410 ha         1 54W       0.131000
     15 H3           5.0270     0.0050     0.9640 ha         1 54W       0.131000
     16 H4           3.8700    -2.1400     0.5160 ha         1 54W       0.131000
     17 H5          -5.2970     0.9260    -0.1450 hc         1 54W       0.058700
     18 H6          -4.6460     0.0060    -1.5060 hc         1 54W       0.058700
     19 H7          -5.3270    -0.8280    -0.1050 hc         1 54W       0.058700
     20 H8          -2.4380    -0.0070    -1.4800 hn         1 54W       0.310500
     21 H9          -0.8240     0.8850     0.6820 h1         1 54W       0.055700
     22 H10         -0.8320    -0.8710     0.6970 h1         1 54W       0.055700
     23 H11         -0.1120     0.8610    -1.7180 hc         1 54W       0.048700
     24 H12         -0.1150    -0.8960    -1.6990 hc         1 54W       0.048700
     25 H13          1.6010    -2.1460    -0.4360 ha         1 54W       0.129000
@<TRIPOS>BOND
     1     1     2 ar  
     2     1    11 1   
     3     1    12 ar  
     4     2     3 ar  
     5     2    13 1   
     6     3     4 ar  
     7     3    14 1   
     8     4     5 ar  
     9     4    15 1   
    10     5    12 ar  
    11     5    16 1   
    12     6     7 2   
    13     7     8 1   
    14     7     9 1   
    15     8    17 1   
    16     8    18 1   
    17     8    19 1   
    18     9    10 1   
    19     9    20 1   
    20    10    11 1   
    21    10    21 1   
    22    10    22 1   
    23    11    23 1   
    24    11    24 1   
    25    12    25 1   
@<TRIPOS>SUBSTRUCTURE
     1 54W         1 TEMP              0 ****  ****    0 ROOT
