@<TRIPOS>MOLECULE
54X
   21    23     1     0     0
SMALL
No Charge or Current Charge


@<TRIPOS>ATOM
      1 O15          0.0470     2.5130     0.1900 o          1 54X      -0.524100
      2 C3           1.0000     1.7620     0.1180 c          1 54X       0.731100
      3 N4           2.2460     2.3070     0.2470 nc         1 54X      -0.693100
      4 C5           3.3720     1.6350     0.1930 cd         1 54X       0.671100
      5 N6           3.2780     0.2700    -0.0090 na         1 54X      -0.878200
      6 C1           2.0750    -0.4040    -0.1550 cc         1 54X       0.165000
      7 S7           1.9500    -2.1250    -0.4100 ss         1 54X       0.204000
      8 C8           0.2050    -1.9400    -0.4520 cc         1 54X      -0.250000
      9 C9          -0.2050    -0.6230    -0.2770 cd         1 54X       0.065000
     10 C2           0.9110     0.2990    -0.0980 cd         1 54X      -0.237600
     11 C10         -1.6470    -0.3560    -0.2950 cd         1 54X      -0.171000
     12 C14         -2.5820    -1.3580    -0.4780 cc         1 54X      -0.125000
     13 C13         -3.9250    -0.9080    -0.4660 cc         1 54X      -0.140000
     14 C12         -4.0560     0.4390    -0.2750 cd         1 54X      -0.262000
     15 S11         -2.4720     1.2110    -0.1000 ss         1 54X       0.308000
     16 H1           4.3500     2.0920     0.2990 h5         1 54X       0.048800
     17 H2           4.1560    -0.2390    -0.0480 hn         1 54X       0.517000
     18 H3          -0.3680    -2.8400    -0.6060 h4         1 54X       0.161000
     19 H4          -2.3740    -2.4110    -0.6220 ha         1 54X       0.129000
     20 H5          -4.7640    -1.5870    -0.5970 ha         1 54X       0.131000
     21 H6          -4.9610     1.0310    -0.2250 h4         1 54X       0.149000
@<TRIPOS>BOND
     1     1     2 2   
     2     2     3 1   
     3     2    10 1   
     4     3     4 2   
     5     4     5 1   
     6     4    16 1   
     7     5     6 1   
     8     5    17 1   
     9     6     7 1   
    10     6    10 2   
    11     7     8 1   
    12     8     9 2   
    13     8    18 1   
    14     9    10 1   
    15     9    11 1   
    16    11    12 2   
    17    11    15 1   
    18    12    13 1   
    19    12    19 1   
    20    13    14 2   
    21    13    20 1   
    22    14    15 1   
    23    14    21 1   
@<TRIPOS>SUBSTRUCTURE
     1 54X         1 TEMP              0 ****  ****    0 ROOT
