@<TRIPOS>MOLECULE
54X
   21    23     1     0     0
SMALL
bcc


@<TRIPOS>ATOM
      1 O15         -0.0920     2.3620    -0.3700 o          1 54X      -0.524100
      2 C3           0.9150     1.6910    -0.2200 c          1 54X       0.731100
      3 N4           2.1580     2.3050    -0.1690 nc         1 54X      -0.693100
      4 C5           3.2340     1.6100    -0.0420 cd         1 54X       0.671100
      5 N6           3.2790     0.2690     0.0520 na         1 54X      -0.684600
      6 C1           2.1060    -0.4130     0.0240 cc         1 54X       0.171500
      7 S7           1.9560    -2.1150     0.1010 ss         1 54X      -0.085800
      8 C8           0.2410    -1.9740    -0.0060 cc         1 54X      -0.123100
      9 C9          -0.1990    -0.6900    -0.1120 cd         1 54X       0.065000
     10 C2           0.9020     0.2400    -0.0920 cd         1 54X      -0.237600
     11 C10         -1.6270    -0.4080    -0.2320 cd         1 54X      -0.026100
     12 C14         -2.5390    -1.1850    -0.8990 cc         1 54X      -0.143000
     13 C13         -3.8770    -0.7580    -0.7150 cc         1 54X      -0.158000
     14 C12         -3.9650     0.3320     0.0990 cd         1 54X      -0.135100
     15 S11         -2.4260     0.8590     0.6220 ss         1 54X       0.018200
     16 H1           4.1980     2.1030    -0.0040 h5         1 54X       0.048800
     17 H2           4.1690    -0.1990     0.1500 hn         1 54X       0.461800
     18 H3          -0.3600    -2.8700     0.0390 h4         1 54X       0.179000
     19 H4          -2.2540    -2.0330    -1.5060 ha         1 54X       0.147000
     20 H5          -4.7320    -1.2330    -1.1750 ha         1 54X       0.149000
     21 H6          -4.8510     0.8750     0.3880 h4         1 54X       0.167000
@<TRIPOS>BOND
     1     1     2 2   
     2     2     3 1   
     3     2    10 1   
     4     3     4 2   
     5     4     5 1   
     6     4    16 1   
     7     5     6 1   
     8     5    17 1   
     9     6     7 1   
    10     6    10 2   
    11     7     8 1   
    12     8     9 2   
    13     8    18 1   
    14     9    10 1   
    15     9    11 1   
    16    11    12 2   
    17    11    15 1   
    18    12    13 1   
    19    12    19 1   
    20    13    14 2   
    21    13    20 1   
    22    14    15 1   
    23    14    21 1   
@<TRIPOS>SUBSTRUCTURE
     1 54X         1 TEMP              0 ****  ****    0 ROOT
