@<TRIPOS>MOLECULE
54Y
   19    19     1     0     0
SMALL
No Charge or Current Charge


@<TRIPOS>ATOM
      1 N1          -1.3490     2.0050    -0.0900 nc         1 54Y      -0.512800
      2 C4          -3.3660     0.5770    -0.0180 c3         1 54Y       0.066900
      3 C5          -0.9590    -0.2760     0.0220 cc         1 54Y       0.097000
      4 O            1.7610    -1.4780     0.0790 o          1 54Y      -0.602100
      5 C1           1.5760    -0.2720     0.0190 c          1 54Y       0.650700
      6 N            2.6190     0.6240    -0.0260 ns         1 54Y      -0.505900
      7 C            4.0330     0.2430    -0.0090 c3         1 54Y       0.098300
      8 C2           0.2470     0.3720    -0.0110 cd         1 54Y      -0.264600
      9 Cl          -1.3120    -1.9790     0.1060 cl         1 54Y      -0.097000
     10 N2          -1.9060     0.7430    -0.0270 na         1 54Y       0.134800
     11 C3          -0.0530     1.7510    -0.0790 cd         1 54Y       0.267900
     12 H1          -3.6690     0.0640     0.9030 h1         1 54Y       0.065367
     13 H2          -3.8580     1.5560    -0.0650 h1         1 54Y       0.065367
     14 H3          -3.6710    -0.0230    -0.8840 h1         1 54Y       0.065367
     15 H4           2.3840     1.6060    -0.0740 hn         1 54Y       0.314500
     16 H5           4.2570    -0.3060     0.9150 h1         1 54Y       0.039700
     17 H6           4.2550    -0.3940    -0.8750 h1         1 54Y       0.039700
     18 H7           4.6570     1.1440    -0.0540 h1         1 54Y       0.039700
     19 H8           0.6380     2.5830    -0.1210 h4         1 54Y       0.038100
@<TRIPOS>BOND
     1     1    10 1   
     2     1    11 2   
     3     2    10 1   
     4     2    12 1   
     5     2    13 1   
     6     2    14 1   
     7     3     8 2   
     8     3     9 1   
     9     3    10 1   
    10     4     5 2   
    11     5     6 1   
    12     5     8 1   
    13     6     7 1   
    14     6    15 1   
    15     7    16 1   
    16     7    17 1   
    17     7    18 1   
    18     8    11 1   
    19    11    19 1   
@<TRIPOS>SUBSTRUCTURE
     1 54Y         1 TEMP              0 ****  ****    0 ROOT
