@<TRIPOS>MOLECULE
54Y
   19    19     1     0     0
SMALL
abcg2


@<TRIPOS>ATOM
      1 N1          -1.4050     1.9510    -0.1560 nc         1 54Y      -0.512800
      2 C4          -3.3410     0.5130     0.0300 c3         1 54Y       0.066900
      3 C5          -0.9470    -0.2040     0.0090 cc         1 54Y       0.097000
      4 O            1.7360    -1.4020    -0.1150 o          1 54Y      -0.602100
      5 C1           1.6020    -0.1860    -0.0540 c          1 54Y       0.650700
      6 N            2.6460     0.6520     0.0280 ns         1 54Y      -0.505900
      7 C            4.0100     0.1770     0.0290 c3         1 54Y       0.098300
      8 C2           0.2720     0.4460    -0.0670 cd         1 54Y      -0.264600
      9 CL          -1.3220    -1.8470     0.1650 cl         1 54Y      -0.097000
     10 N2          -1.9120     0.7220    -0.0460 na         1 54Y       0.134800
     11 C3          -0.1000     1.8000    -0.1690 cd         1 54Y       0.267900
     12 H1          -3.6310     0.1840     1.0260 h1         1 54Y       0.065367
     13 H2          -3.8260     1.4580    -0.1910 h1         1 54Y       0.065367
     14 H3          -3.6580    -0.2280    -0.7000 h1         1 54Y       0.065367
     15 H4           2.4950     1.6440     0.0950 hn         1 54Y       0.314500
     16 H5           4.1860    -0.5360     0.8340 h1         1 54Y       0.039700
     17 H6           4.2740    -0.3010    -0.9150 h1         1 54Y       0.039700
     18 H7           4.6670     1.0290     0.1760 h1         1 54Y       0.039700
     19 H8           0.5370     2.6670    -0.2660 h4         1 54Y       0.038100
@<TRIPOS>BOND
     1     1    10 1   
     2     1    11 2   
     3     2    10 1   
     4     2    12 1   
     5     2    13 1   
     6     2    14 1   
     7     3     8 2   
     8     3     9 1   
     9     3    10 1   
    10     4     5 2   
    11     5     6 1   
    12     5     8 1   
    13     6     7 1   
    14     6    15 1   
    15     7    16 1   
    16     7    17 1   
    17     7    18 1   
    18     8    11 1   
    19    11    19 1   
@<TRIPOS>SUBSTRUCTURE
     1 54Y         1 TEMP              0 ****  ****    0 ROOT
