@<TRIPOS>MOLECULE
54Z
   21    21     1     0     0
SMALL
No Charge or Current Charge


@<TRIPOS>ATOM
      1 C6           0.6670    -1.0780    -0.1480 ca         1 54Z       0.123000
      2 C2           1.4940     1.6000    -0.2820 ca         1 54Z      -0.081000
      3 C4          -0.3040    -0.0520    -0.1110 ca         1 54Z       0.091100
      4 C5          -2.7360     0.5190     0.0380 c3         1 54Z       0.515000
      5 C1           2.4560     0.5730    -0.3190 ca         1 54Z      -0.063300
      6 Cl           0.1850    -2.7740    -0.0660 cl         1 54Z      -0.167000
      7 O           -1.6400    -0.4160    -0.0100 os         1 54Z      -0.390100
      8 F2          -2.8030     1.2830    -1.0780 f          1 54Z      -0.106333
      9 F1          -3.9150    -0.1340     0.1370 f          1 54Z      -0.106333
     10 F           -2.6550     1.3460     1.1060 f          1 54Z      -0.106333
     11 C3           0.1240     1.2960    -0.1800 ca         1 54Z      -0.099000
     12 C7           2.0330    -0.7670    -0.2510 ca         1 54Z      -0.105000
     13 C            3.9370     0.9120    -0.4350 c3         1 54Z       0.196100
     14 N            4.5200     1.2500     0.8780 n8         1 54Z      -1.002200
     15 H1           1.8110     2.6400    -0.3310 ha         1 54Z       0.145000
     16 H2          -0.5810     2.1200    -0.1540 ha         1 54Z       0.138000
     17 H3           2.7640    -1.5720    -0.2780 ha         1 54Z       0.131000
     18 H4           4.4830     0.0560    -0.8580 h1         1 54Z       0.041700
     19 H5           4.0690     1.7660    -1.1140 h1         1 54Z       0.041700
     20 H6           4.4540     0.4270     1.4890 hn         1 54Z       0.402500
     21 H7           5.5320     1.3880     0.7680 hn         1 54Z       0.402500
@<TRIPOS>BOND
     1     1     3 ar  
     2     1     6 1   
     3     1    12 ar  
     4     2     5 ar  
     5     2    11 ar  
     6     2    15 1   
     7     3     7 1   
     8     3    11 ar  
     9     4     7 1   
    10     4     8 1   
    11     4     9 1   
    12     4    10 1   
    13     5    12 ar  
    14     5    13 1   
    15    11    16 1   
    16    12    17 1   
    17    13    14 1   
    18    13    18 1   
    19    13    19 1   
    20    14    20 1   
    21    14    21 1   
@<TRIPOS>SUBSTRUCTURE
     1 54Z         1 TEMP              0 ****  ****    0 ROOT
