@<TRIPOS>MOLECULE
54Z
   21    21     1     0     0
SMALL
bcc


@<TRIPOS>ATOM
      1 C6           0.4750    -0.9140    -0.4510 ca         1 54Z       0.031400
      2 C2           1.6120     1.6050    -0.3480 ca         1 54Z      -0.099000
      3 C4          -0.3280     0.2140    -0.5690 ca         1 54Z       0.091100
      4 C5          -2.5090     0.1640     0.2620 c3         1 54Z       0.855700
      5 C1           2.4250     0.4850    -0.2230 ca         1 54Z      -0.063300
      6 CL          -0.2310    -2.4850    -0.5380 cl         1 54Z      -0.075400
      7 O           -1.6830     0.0580    -0.7920 os         1 54Z      -0.366900
      8 F2          -2.5610     1.4040     0.7490 f          1 54Z      -0.227633
      9 F1          -3.7210    -0.1720    -0.1460 f          1 54Z      -0.227633
     10 F           -2.1610    -0.6330     1.2700 f          1 54Z      -0.227633
     11 C3           0.2420     1.4730    -0.5210 ca         1 54Z      -0.117000
     12 C7           1.8410    -0.7780    -0.2780 ca         1 54Z      -0.123000
     13 C            3.9220     0.5970    -0.0710 c3         1 54Z       0.196100
     14 N            4.3370     1.9050     0.3900 n8         1 54Z      -0.891800
     15 H1           2.0520     2.5910    -0.3070 ha         1 54Z       0.163000
     16 H2          -0.3790     2.3520    -0.6380 ha         1 54Z       0.156000
     17 H3           2.4540    -1.6650    -0.1790 ha         1 54Z       0.149000
     18 H4           4.2700    -0.2320     0.5610 h1         1 54Z       0.041700
     19 H5           4.3710     0.4240    -1.0530 h1         1 54Z       0.041700
     20 H6           4.1250     2.0060     1.3750 hn         1 54Z       0.347300
     21 H7           5.3420     1.9840     0.3090 hn         1 54Z       0.347300
@<TRIPOS>BOND
     1     1     3 ar  
     2     1     6 1   
     3     1    12 ar  
     4     2     5 ar  
     5     2    11 ar  
     6     2    15 1   
     7     3     7 1   
     8     3    11 ar  
     9     4     7 1   
    10     4     8 1   
    11     4     9 1   
    12     4    10 1   
    13     5    12 ar  
    14     5    13 1   
    15    11    16 1   
    16    12    17 1   
    17    13    14 1   
    18    13    18 1   
    19    13    19 1   
    20    14    20 1   
    21    14    21 1   
@<TRIPOS>SUBSTRUCTURE
     1 54Z         1 TEMP              0 ****  ****    0 ROOT
