@<TRIPOS>MOLECULE
550
   55    58     1     0     0
SMALL
No Charge or Current Charge


@<TRIPOS>ATOM
      1 O1           7.0140     2.0470    -0.2850 o          1 550      -0.570100
      2 O2           8.0750    -0.0260    -1.8890 oh         1 550      -0.421100
      3 O3           4.2410    -2.1960     1.3040 os         1 550      -0.429100
      4 O4           2.9870    -0.8100     2.6390 o          1 550      -0.492000
      5 O5          -1.9840     0.9680    -0.3020 os         1 550      -0.346100
      6 C1           5.7880     0.4940     1.0840 cx         1 550      -0.217700
      7 C2           4.3150     0.1550     0.8570 cx         1 550      -0.155000
      8 C3           4.7060     1.4400     1.5660 cx         1 550      -0.061400
      9 C4           3.7610    -0.9760     1.7050 c          1 550       0.620100
     10 C5           3.6920     0.2410    -0.5410 c3         1 550       0.010900
     11 C6           6.6610     0.8930    -0.0830 c          1 550       0.634100
     12 N1           7.0270    -0.1690    -0.8980 ns         1 550      -0.384400
     13 C7           3.7930    -3.3640     2.0130 c3         1 550       0.150900
     14 C8           2.1790     0.4180    -0.4880 ca         1 550      -0.113300
     15 C9           1.6200     1.6980    -0.3110 ca         1 550      -0.062500
     16 C10          0.2260     1.8580    -0.2520 ca         1 550      -0.171000
     17 C11         -0.6240     0.7470    -0.3690 ca         1 550       0.143100
     18 C12         -0.0680    -0.5380    -0.5460 ca         1 550      -0.171000
     19 C13          1.3280    -0.6980    -0.6050 ca         1 550      -0.062500
     20 C14         -2.9420    -0.1020    -0.4090 c3         1 550       0.205900
     21 C15         -4.3820     0.4260    -0.3010 ca         1 550      -0.043300
     22 C16         -4.6480     1.8000    -0.1240 ca         1 550      -0.136000
     23 C17         -5.9730     2.2480    -0.0280 ca         1 550       0.371300
     24 N2          -7.0320     1.4170    -0.1030 nb         1 550      -0.668000
     25 C18         -5.4980    -0.4480    -0.3770 ca         1 550      -0.078000
     26 C19         -6.8100     0.0930    -0.2730 ca         1 550       0.275000
     27 C20         -7.9150    -0.7760    -0.3490 ca         1 550      -0.078000
     28 C21         -7.7410    -2.1580    -0.5250 ca         1 550      -0.106000
     29 C22         -6.4490    -2.6900    -0.6270 ca         1 550      -0.105000
     30 C23         -5.3320    -1.8440    -0.5540 ca         1 550      -0.101000
     31 C24         -6.2890     3.7200     0.1570 c3         1 550      -0.149400
     32 HO2          7.6760    -0.4060    -2.7070 ho         1 550       0.446000
     33 H1           6.3120    -0.0660     1.8550 hc         1 550       0.099700
     34 H3           4.5350     1.5090     2.6390 hc         1 550       0.099700
     35 H3A          4.5720     2.3800     1.0350 hc         1 550       0.099700
     36 H5           4.1290     1.0710    -1.1100 hc         1 550       0.069200
     37 H5A          3.9430    -0.6650    -1.1080 hc         1 550       0.069200
     38 HN1          6.8250    -1.1180    -0.5860 hn         1 550       0.338500
     39 H7           4.0690    -3.3080     3.0740 h1         1 550       0.049700
     40 H7A          2.7020    -3.4700     1.9430 h1         1 550       0.049700
     41 H7B          4.2500    -4.2670     1.5900 h1         1 550       0.049700
     42 H9           2.2660     2.5680    -0.2170 ha         1 550       0.114500
     43 H10         -0.1990     2.8490    -0.1150 ha         1 550       0.121000
     44 H12         -0.6960    -1.4190    -0.6390 ha         1 550       0.121000
     45 H13          1.7470    -1.6930    -0.7390 ha         1 550       0.114500
     46 H14         -2.8260    -0.6140    -1.3730 h1         1 550       0.047700
     47 H14A        -2.7750    -0.8340     0.3920 h1         1 550       0.047700
     48 H16         -3.8450     2.5280    -0.0590 ha         1 550       0.138000
     49 H20         -8.9190    -0.3690    -0.2710 ha         1 550       0.132000
     50 H21         -8.6080    -2.8140    -0.5820 ha         1 550       0.117000
     51 H22         -6.3120    -3.7610    -0.7630 ha         1 550       0.114000
     52 H23         -4.3450    -2.2910    -0.6370 ha         1 550       0.109000
     53 H24         -6.3680     4.2230    -0.8130 hc         1 550       0.053700
     54 H24A        -7.2340     3.8670     0.6920 hc         1 550       0.053700
     55 H24B        -5.5030     4.2230     0.7330 hc         1 550       0.053700
@<TRIPOS>BOND
     1     1    11 2   
     2     2    12 1   
     3     2    32 1   
     4     3     9 1   
     5     3    13 1   
     6     4     9 2   
     7     5    17 1   
     8     5    20 1   
     9     6     7 1   
    10     6     8 1   
    11     6    11 1   
    12     6    33 1   
    13     7     8 1   
    14     7     9 1   
    15     7    10 1   
    16     8    34 1   
    17     8    35 1   
    18    10    14 1   
    19    10    36 1   
    20    10    37 1   
    21    11    12 1   
    22    12    38 1   
    23    13    39 1   
    24    13    40 1   
    25    13    41 1   
    26    14    15 ar  
    27    14    19 ar  
    28    15    16 ar  
    29    15    42 1   
    30    16    17 ar  
    31    16    43 1   
    32    17    18 ar  
    33    18    19 ar  
    34    18    44 1   
    35    19    45 1   
    36    20    21 1   
    37    20    46 1   
    38    20    47 1   
    39    21    22 ar  
    40    21    25 ar  
    41    22    23 ar  
    42    22    48 1   
    43    23    24 ar  
    44    23    31 1   
    45    24    26 ar  
    46    25    26 ar  
    47    25    30 ar  
    48    26    27 ar  
    49    27    28 ar  
    50    27    49 1   
    51    28    29 ar  
    52    28    50 1   
    53    29    30 ar  
    54    29    51 1   
    55    30    52 1   
    56    31    53 1   
    57    31    54 1   
    58    31    55 1   
@<TRIPOS>SUBSTRUCTURE
     1 550         1 TEMP              0 ****  ****    0 ROOT
