@<TRIPOS>MOLECULE
550
   55    58     1     0     0
SMALL
bcc


@<TRIPOS>ATOM
      1 O1           6.3440     1.4500    -1.4070 o          1 550      -0.570100
      2 O2           8.5520    -0.1140    -1.5590 oh         1 550      -0.382100
      3 O3           3.3080    -1.7740     1.3660 os         1 550      -0.405900
      4 O4           4.1100    -0.4620     2.9780 o          1 550      -0.541000
      5 O5          -1.9870     0.8930    -0.1930 os         1 550      -0.322900
      6 C1           5.8140     0.5330     0.7490 cx         1 550      -0.217700
      7 C2           4.3160     0.2250     0.6920 cx         1 550      -0.155000
      8 C3           4.8130     1.5730     1.1060 cx         1 550      -0.061400
      9 C4           3.9010    -0.6810     1.8090 c          1 550       0.669100
     10 C5           3.6010     0.0530    -0.6360 c3         1 550       0.010900
     11 C6           6.6030     0.6640    -0.5130 c          1 550       0.701100
     12 N1           7.6270    -0.2090    -0.5660 ns         1 550      -0.451400
     13 C7           2.8490    -2.7200     2.3310 c3         1 550       0.127700
     14 C8           2.1110     0.2510    -0.5220 ca         1 550      -0.113300
     15 C9           1.5720     1.4860    -0.1580 ca         1 550      -0.080500
     16 C10          0.2070     1.6740    -0.0530 ca         1 550      -0.189000
     17 C11         -0.6680     0.6210    -0.3180 ca         1 550       0.143100
     18 C12         -0.1520    -0.6160    -0.6890 ca         1 550      -0.189000
     19 C13          1.2250    -0.7840    -0.7820 ca         1 550      -0.080500
     20 C14         -2.9090    -0.1310    -0.4590 c3         1 550       0.182700
     21 C15         -4.3030     0.3850    -0.2580 ca         1 550      -0.043300
     22 C16         -4.5680     1.6590     0.1470 ca         1 550      -0.219300
     23 C17         -5.9110     2.0870     0.3250 ca         1 550       0.436600
     24 N2          -6.9330     1.3020     0.1170 nb         1 550      -0.668000
     25 C18         -5.4030    -0.4880    -0.4960 ca         1 550      -0.143300
     26 C19         -6.7040     0.0280    -0.2890 ca         1 550       0.405600
     27 C20         -7.8210    -0.8060    -0.5150 ca         1 550      -0.161300
     28 C21         -7.6520    -2.1000    -0.9310 ca         1 550      -0.124000
     29 C22         -6.3590    -2.6150    -1.1380 ca         1 550      -0.123000
     30 C23         -5.2580    -1.8270    -0.9240 ca         1 550      -0.119000
     31 C24         -6.1700     3.4960     0.7600 c3         1 550      -0.149400
     32 HO2          8.2790    -0.7400    -2.2440 ho         1 550       0.407000
     33 H1           6.3420     0.0640     1.5720 hc         1 550       0.099700
     34 H3           4.7370     1.8660     2.1440 hc         1 550       0.099700
     35 H3A          4.6710     2.3770     0.3950 hc         1 550       0.099700
     36 H5           4.0110     0.7720    -1.3460 hc         1 550       0.069200
     37 H5A          3.8120    -0.9350    -1.0490 hc         1 550       0.069200
     38 HN1          7.9150    -0.7570     0.2310 hn         1 550       0.338500
     39 H7           3.6800    -3.1590     2.8820 h1         1 550       0.049700
     40 H7A          2.1520    -2.2650     3.0330 h1         1 550       0.049700
     41 H7B          2.3390    -3.4950     1.7670 h1         1 550       0.049700
     42 H9           2.2270     2.3250     0.0440 ha         1 550       0.132500
     43 H10         -0.1910     2.6400     0.2330 ha         1 550       0.139000
     44 H12         -0.7940    -1.4600    -0.9020 ha         1 550       0.139000
     45 H13          1.6090    -1.7560    -1.0680 ha         1 550       0.132500
     46 H14         -2.7980    -0.4950    -1.4880 h1         1 550       0.047700
     47 H14A        -2.7410    -0.9880     0.2060 h1         1 550       0.047700
     48 H16         -3.7720     2.3650     0.3380 ha         1 550       0.156000
     49 H20         -8.8090    -0.3970    -0.3510 ha         1 550       0.150000
     50 H21         -8.5140    -2.7310    -1.1030 ha         1 550       0.135000
     51 H22         -6.2330    -3.6380    -1.4670 ha         1 550       0.132000
     52 H23         -4.2740    -2.2430    -1.0920 ha         1 550       0.127000
     53 H24         -5.7920     4.2020     0.0180 hc         1 550       0.053700
     54 H24A        -7.2340     3.6720     0.8960 hc         1 550       0.053700
     55 H24B        -5.6560     3.7170     1.6980 hc         1 550       0.053700
@<TRIPOS>BOND
     1     1    11 2   
     2     2    12 1   
     3     2    32 1   
     4     3     9 1   
     5     3    13 1   
     6     4     9 2   
     7     5    17 1   
     8     5    20 1   
     9     6     7 1   
    10     6     8 1   
    11     6    11 1   
    12     6    33 1   
    13     7     8 1   
    14     7     9 1   
    15     7    10 1   
    16     8    34 1   
    17     8    35 1   
    18    10    14 1   
    19    10    36 1   
    20    10    37 1   
    21    11    12 1   
    22    12    38 1   
    23    13    39 1   
    24    13    40 1   
    25    13    41 1   
    26    14    15 ar  
    27    14    19 ar  
    28    15    16 ar  
    29    15    42 1   
    30    16    17 ar  
    31    16    43 1   
    32    17    18 ar  
    33    18    19 ar  
    34    18    44 1   
    35    19    45 1   
    36    20    21 1   
    37    20    46 1   
    38    20    47 1   
    39    21    22 ar  
    40    21    25 ar  
    41    22    23 ar  
    42    22    48 1   
    43    23    24 ar  
    44    23    31 1   
    45    24    26 ar  
    46    25    26 ar  
    47    25    30 ar  
    48    26    27 ar  
    49    27    28 ar  
    50    27    49 1   
    51    28    29 ar  
    52    28    50 1   
    53    29    30 ar  
    54    29    51 1   
    55    30    52 1   
    56    31    53 1   
    57    31    54 1   
    58    31    55 1   
@<TRIPOS>SUBSTRUCTURE
     1 550         1 TEMP              0 ****  ****    0 ROOT
