@<TRIPOS>MOLECULE
551
   49    50     1     0     0
SMALL
abcg2


@<TRIPOS>ATOM
      1 C1          -8.3220     0.6600    -0.4610 c          1 551       0.603100
      2 O2          -6.6490    -1.7860    -0.0250 o          1 551      -0.587100
      3 C3          -6.2480    -0.7150    -0.4570 c          1 551       0.616100
      4 C5          -2.6010    -0.5270     0.0590 c3         1 551      -0.099400
      5 C6          -1.5190    -1.2670     0.8280 c3         1 551       0.162800
      6 C7           0.8630    -1.5060     1.1250 c3         1 551       0.205100
      7 C8           2.2200    -1.0430     0.6670 ca         1 551      -0.080300
      8 C9           2.4900    -0.8160    -0.6800 ca         1 551      -0.088000
      9 C10          3.7470    -0.4040    -1.0830 ca         1 551      -0.100000
     10 C11          4.7850    -0.1960    -0.1720 cp         1 551      -0.024000
     11 C12          4.4990    -0.4400     1.1690 ca         1 551       0.129000
     12 C14          6.1040     0.2630    -0.6580 cp         1 551      -0.041000
     13 C15          6.7880    -0.4780    -1.6200 ca         1 551      -0.089500
     14 C17          8.5580     1.1510    -1.6550 ca         1 551      -0.103000
     15 C18          7.8790     1.8990    -0.7010 ca         1 551      -0.113000
     16 C19          6.6620     1.4580    -0.2040 ca         1 551      -0.089500
     17 CL           5.7350    -0.2690     2.3760 cl         1 551      -0.201000
     18 C16          8.0090    -0.0380    -2.1140 ca         1 551      -0.113000
     19 C13          3.2420    -0.8510     1.5870 ca         1 551      -0.106000
     20 N1          -0.2010    -0.8110     0.4310 n7         1 551      -0.863400
     21 C4          -3.9910    -0.9850     0.4680 c3         1 551       0.104000
     22 N           -5.0050    -0.2600    -0.2690 ns         1 551      -0.501900
     23 C2          -7.1510     0.1820    -1.2790 c3         1 551      -0.230400
     24 O1          -8.3270     0.7370     0.7410 o          1 551      -0.470000
     25 O           -9.3320     1.0290    -1.2320 os         1 551      -0.444100
     26 C          -10.4820     1.5840    -0.5910 c3         1 551       0.152900
     27 H1          -2.5020     0.5490     0.2390 hc         1 551       0.050200
     28 H2          -2.4610    -0.6870    -1.0130 hc         1 551       0.050200
     29 H3          -1.6940    -1.1570     1.9100 h1         1 551       0.034700
     30 H4          -1.5880    -2.3380     0.6150 h1         1 551       0.034700
     31 H5           0.7620    -2.5760     0.9110 h1         1 551       0.040700
     32 H6           0.7990    -1.4120     2.2200 h1         1 551       0.040700
     33 H7           1.7070    -0.9490    -1.4150 ha         1 551       0.133000
     34 H8           3.9360    -0.2200    -2.1340 ha         1 551       0.121000
     35 H9           6.3670    -1.4100    -1.9770 ha         1 551       0.117000
     36 H10          9.5090     1.4950    -2.0400 ha         1 551       0.113000
     37 H11          8.2960     2.8330    -0.3450 ha         1 551       0.113500
     38 H12          6.1350     2.0560     0.5270 ha         1 551       0.117000
     39 H13          8.5310    -0.6280    -2.8560 ha         1 551       0.113500
     40 H14          3.0580    -1.0210     2.6410 ha         1 551       0.126000
     41 H15         -0.1230     0.1810     0.6270 hn         1 551       0.411000
     42 H17         -4.1070    -2.0500     0.2680 h1         1 551       0.056700
     43 H18         -4.1300    -0.8450     1.5450 h1         1 551       0.056700
     44 H19         -4.7660     0.6550    -0.6170 hn         1 551       0.312500
     45 H20         -7.4980    -0.3740    -2.1520 hc         1 551       0.088700
     46 H21         -6.6310     1.0640    -1.6610 hc         1 551       0.088700
     47 H22        -10.9490     0.8640     0.0800 h1         1 551       0.050367
     48 H23        -10.2310     2.4860    -0.0340 h1         1 551       0.050367
     49 H24        -11.1750     1.8350    -1.3890 h1         1 551       0.050367
@<TRIPOS>BOND
     1     1    23 1   
     2     1    24 2   
     3     1    25 1   
     4     2     3 2   
     5     3    22 1   
     6     3    23 1   
     7     4     5 1   
     8     4    21 1   
     9     4    27 1   
    10     4    28 1   
    11     5    20 1   
    12     5    29 1   
    13     5    30 1   
    14     6     7 1   
    15     6    20 1   
    16     6    31 1   
    17     6    32 1   
    18     7     8 ar  
    19     7    19 ar  
    20     8     9 ar  
    21     8    33 1   
    22     9    10 ar  
    23     9    34 1   
    24    10    11 ar  
    25    10    12 1   
    26    11    17 1   
    27    11    19 ar  
    28    12    13 ar  
    29    12    16 ar  
    30    13    18 ar  
    31    13    35 1   
    32    14    15 ar  
    33    14    18 ar  
    34    14    36 1   
    35    15    16 ar  
    36    15    37 1   
    37    16    38 1   
    38    18    39 1   
    39    19    40 1   
    40    20    41 1   
    41    21    22 1   
    42    21    42 1   
    43    21    43 1   
    44    22    44 1   
    45    23    45 1   
    46    23    46 1   
    47    25    26 1   
    48    26    47 1   
    49    26    48 1   
    50    26    49 1   
@<TRIPOS>SUBSTRUCTURE
     1 551         1 TEMP              0 ****  ****    0 ROOT
