@<TRIPOS>MOLECULE
551
   49    50     1     0     0
SMALL
No Charge or Current Charge


@<TRIPOS>ATOM
      1 C1          -8.0310     0.6570    -0.6750 c          1 551       0.603100
      2 O2          -5.3140    -0.6070    -1.4240 o          1 551      -0.587100
      3 C3          -5.6390     0.1660    -0.5350 c          1 551       0.616100
      4 C5          -2.6730    -0.4600     0.7080 c3         1 551      -0.099400
      5 C6          -1.5980    -1.4570     1.1770 c3         1 551       0.162800
      6 C7           0.8470    -1.9080     1.0890 c3         1 551       0.205100
      7 C8           2.1670    -1.3420     0.5840 ca         1 551      -0.080300
      8 C9           2.5790    -1.5770    -0.7400 ca         1 551      -0.088000
      9 C10          3.7990    -1.0580    -1.2050 ca         1 551      -0.100000
     10 C11          4.6370    -0.2860    -0.3640 cp         1 551      -0.024000
     11 C12          4.2130    -0.0620     0.9750 ca         1 551       0.129000
     12 C14          5.9240     0.2510    -0.9030 cp         1 551      -0.041000
     13 C15          6.8480    -0.6090    -1.5450 ca         1 551      -0.089500
     14 C17          8.3550     1.2540    -1.9700 ca         1 551      -0.103000
     15 C18          7.4460     2.1270    -1.3490 ca         1 551      -0.113000
     16 C19          6.2410     1.6300    -0.8240 ca         1 551      -0.089500
     17 Cl           5.2060     0.8280     2.1310 cl         1 551      -0.201000
     18 C16          8.0540    -0.1140    -2.0700 ca         1 551      -0.113000
     19 C13          2.9920    -0.5850     1.4370 ca         1 551      -0.106000
     20 N1          -0.2690    -1.0230     0.7110 n7         1 551      -0.863400
     21 C4          -4.0890    -0.8610     1.1650 c3         1 551       0.104000
     22 N           -5.1050     0.1030     0.7330 ns         1 551      -0.501900
     23 C2          -6.6500     1.2650    -0.7610 c3         1 551      -0.230400
     24 O1          -8.4210     0.0480     0.3110 o          1 551      -0.470000
     25 O           -8.8790     1.2760    -1.5560 os         1 551      -0.444100
     26 C          -10.2790     0.9440    -1.4990 c3         1 551       0.152900
     27 H1          -2.4400     0.5380     1.0990 hc         1 551       0.050200
     28 H2          -2.6500    -0.3930    -0.3870 hc         1 551       0.050200
     29 H3          -1.6180    -1.5190     2.2740 h1         1 551       0.034700
     30 H4          -1.8360    -2.4540     0.7790 h1         1 551       0.034700
     31 H5           0.7020    -2.9120     0.6660 h1         1 551       0.040700
     32 H6           0.8970    -2.0190     2.1820 h1         1 551       0.040700
     33 H7           1.9500    -2.1590    -1.4100 ha         1 551       0.133000
     34 H8           4.0970    -1.2450    -2.2340 ha         1 551       0.121000
     35 H9           6.6280    -1.6710    -1.6270 ha         1 551       0.117000
     36 H10          9.2880     1.6390    -2.3770 ha         1 551       0.113000
     37 H11          7.6740     3.1880    -1.2770 ha         1 551       0.113500
     38 H12          5.5400     2.3190    -0.3590 ha         1 551       0.117000
     39 H13          8.7550    -0.7910    -2.5540 ha         1 551       0.113500
     40 H14          2.6900    -0.4050     2.4650 ha         1 551       0.126000
     41 H15         -0.0780    -0.0940     1.1040 hn         1 551       0.411000
     42 H17         -4.3410    -1.8530     0.7630 h1         1 551       0.056700
     43 H18         -4.1150    -0.9260     2.2610 h1         1 551       0.056700
     44 H19         -5.4420     0.7820     1.4060 hn         1 551       0.312500
     45 H20         -6.5110     1.7160    -1.7490 hc         1 551       0.088700
     46 H21         -6.5780     2.0100     0.0380 hc         1 551       0.088700
     47 H22        -10.4340    -0.1300    -1.6680 h1         1 551       0.050367
     48 H23        -10.7070     1.2080    -0.5230 h1         1 551       0.050367
     49 H24        -10.8340     1.4930    -2.2710 h1         1 551       0.050367
@<TRIPOS>BOND
     1     1    23 1   
     2     1    24 2   
     3     1    25 1   
     4     2     3 2   
     5     3    22 1   
     6     3    23 1   
     7     4     5 1   
     8     4    21 1   
     9     4    27 1   
    10     4    28 1   
    11     5    20 1   
    12     5    29 1   
    13     5    30 1   
    14     6     7 1   
    15     6    20 1   
    16     6    31 1   
    17     6    32 1   
    18     7     8 ar  
    19     7    19 ar  
    20     8     9 ar  
    21     8    33 1   
    22     9    10 ar  
    23     9    34 1   
    24    10    11 ar  
    25    10    12 1   
    26    11    17 1   
    27    11    19 ar  
    28    12    13 ar  
    29    12    16 ar  
    30    13    18 ar  
    31    13    35 1   
    32    14    15 ar  
    33    14    18 ar  
    34    14    36 1   
    35    15    16 ar  
    36    15    37 1   
    37    16    38 1   
    38    18    39 1   
    39    19    40 1   
    40    20    41 1   
    41    21    22 1   
    42    21    42 1   
    43    21    43 1   
    44    22    44 1   
    45    23    45 1   
    46    23    46 1   
    47    25    26 1   
    48    26    47 1   
    49    26    48 1   
    50    26    49 1   
@<TRIPOS>SUBSTRUCTURE
     1 551         1 TEMP              0 ****  ****    0 ROOT
