@<TRIPOS>MOLECULE
552
   44    47     1     0     0
SMALL
abcg2


@<TRIPOS>ATOM
      1 CL11        -0.5390    -4.4900     0.5180 cl         1 552      -0.138000
      2 C10         -0.5400    -2.8120     0.1230 cc         1 552       0.272600
      3 N09          0.6540    -2.1890     0.0790 nc         1 552      -0.637300
      4 C12         -1.6950    -2.1570    -0.1260 cd         1 552       0.012600
      5 N23         -1.6150    -0.8210    -0.4480 n          1 552      -0.262000
      6 C15         -2.9280    -0.2470    -0.6440 c5         1 552       0.039900
      7 C16         -3.2170     0.7860     0.4620 c          1 552       0.612100
      8 N18         -4.1400     1.7020     0.1760 n          1 552      -0.410800
      9 C22         -4.8830     1.8350    -1.0780 c5         1 552       0.100500
     10 C21         -6.0180     2.7800    -0.7030 c5         1 552      -0.094400
     11 C20         -5.3770     3.6850     0.3420 c5         1 552      -0.094400
     12 C19         -4.5150     2.7250     1.1530 c5         1 552       0.100500
     13 O17         -2.6450     0.7040     1.5360 o          1 552      -0.580100
     14 C14         -3.8130    -1.4480    -0.4790 c2         1 552      -0.227200
     15 C13         -3.0910    -2.5270    -0.1630 cf         1 552      -0.143000
     16 C24         -0.4690    -0.0990    -0.5120 c          1 552       0.458700
     17 O25         -0.4370     1.0860    -0.7950 o          1 552      -0.505000
     18 C08          0.7090    -0.9370    -0.2090 cd         1 552       0.593600
     19 O07          1.8460    -0.2700    -0.2580 os         1 552      -0.387600
     20 C06          3.0510    -0.9880     0.0430 c3         1 552       0.215900
     21 C05          4.1710     0.0040     0.0100 ca         1 552      -0.117300
     22 C04          4.9310     0.1800    -1.1420 ca         1 552      -0.055000
     23 C03          5.9530     1.1170    -1.1870 ca         1 552      -0.157500
     24 C26          4.4480     0.7870     1.1260 ca         1 552      -0.055000
     25 C27          5.4630     1.7310     1.1020 ca         1 552      -0.157500
     26 C02          6.1970     1.8770    -0.0600 ca         1 552       0.184000
     27 F01          7.1840     2.7860    -0.0920 f          1 552      -0.178000
     28 H15         -2.9980     0.1960    -1.6420 h1         1 552       0.101700
     29 H22         -4.2520     2.2710    -1.8570 h1         1 552       0.054200
     30 H22A        -5.2520     0.8740    -1.4370 h1         1 552       0.054200
     31 H21         -6.4020     3.3170    -1.5690 hc         1 552       0.057200
     32 H21A        -6.8430     2.2160    -0.2620 hc         1 552       0.057200
     33 H20         -4.7510     4.4360    -0.1430 hc         1 552       0.057200
     34 H20A        -6.1030     4.2070     0.9640 hc         1 552       0.057200
     35 H19         -5.0810     2.2730     1.9720 h1         1 552       0.054200
     36 H19A        -3.6320     3.2000     1.5770 h1         1 552       0.054200
     37 H14         -4.8850    -1.4030    -0.5890 ha         1 552       0.210000
     38 H13         -3.4590    -3.5220     0.0320 ha         1 552       0.221000
     39 H06          2.9640    -1.4540     1.0270 h1         1 552       0.061200
     40 H06A         3.1990    -1.7820    -0.6920 h1         1 552       0.061200
     41 H04          4.7300    -0.4230    -2.0190 ha         1 552       0.121000
     42 H03          6.5490     1.2500    -2.0800 ha         1 552       0.133500
     43 H26          3.8690     0.6600     2.0330 ha         1 552       0.121000
     44 H27          5.6800     2.3390     1.9700 ha         1 552       0.133500
@<TRIPOS>BOND
     1     1     2 1   
     2     2     3 1   
     3     2     4 2   
     4     3    18 2   
     5     4     5 1   
     6     4    15 1   
     7     5     6 1   
     8     5    16 1   
     9     6     7 1   
    10     6    14 1   
    11     6    28 1   
    12     7     8 1   
    13     7    13 2   
    14     8     9 1   
    15     8    12 1   
    16     9    10 1   
    17     9    29 1   
    18     9    30 1   
    19    10    11 1   
    20    10    31 1   
    21    10    32 1   
    22    11    12 1   
    23    11    33 1   
    24    11    34 1   
    25    12    35 1   
    26    12    36 1   
    27    14    15 2   
    28    14    37 1   
    29    15    38 1   
    30    16    17 2   
    31    16    18 1   
    32    18    19 1   
    33    19    20 1   
    34    20    21 1   
    35    20    39 1   
    36    20    40 1   
    37    21    22 ar  
    38    21    24 ar  
    39    22    23 ar  
    40    22    41 1   
    41    23    26 ar  
    42    23    42 1   
    43    24    25 ar  
    44    24    43 1   
    45    25    26 ar  
    46    25    44 1   
    47    26    27 1   
@<TRIPOS>SUBSTRUCTURE
     1 552         1 TEMP              0 ****  ****    0 ROOT
