@<TRIPOS>MOLECULE
552
   44    47     1     0     0
SMALL
No Charge or Current Charge


@<TRIPOS>ATOM
      1 Cl11        -0.5980    -4.4430     0.3130 cl         1 552      -0.138000
      2 C10         -0.4950    -2.7290     0.0570 cc         1 552       0.272600
      3 N09          0.7700    -2.1590     0.0710 nc         1 552      -0.637300
      4 C12         -1.6360    -1.9640    -0.1550 cd         1 552       0.012600
      5 N23         -1.5790    -0.6150    -0.3530 n          1 552      -0.262000
      6 C15         -2.9290    -0.0010    -0.5440 c5         1 552       0.039900
      7 C16         -3.3150     1.0450     0.5590 c          1 552       0.612100
      8 N18         -4.4640     1.8050     0.2260 n          1 552      -0.410800
      9 C22         -5.1650     1.7810    -1.0810 c5         1 552       0.100500
     10 C21         -6.4590     2.5670    -0.7540 c5         1 552      -0.094400
     11 C20         -5.9260     3.6520     0.2110 c5         1 552      -0.094400
     12 C19         -5.0160     2.8200     1.1500 c5         1 552       0.100500
     13 O17         -2.7470     1.1870     1.6380 o          1 552      -0.580100
     14 C14         -3.7660    -1.3010    -0.4410 c2         1 552      -0.227200
     15 C13         -3.0070    -2.3930    -0.2130 cf         1 552      -0.143000
     16 C24         -0.3680     0.0840    -0.3870 c          1 552       0.458700
     17 O25         -0.3200     1.2950    -0.6020 o          1 552      -0.505000
     18 C08          0.8230    -0.8270    -0.1420 cd         1 552       0.593600
     19 O07          2.0730    -0.2430    -0.1450 os         1 552      -0.387600
     20 C06          3.2590    -1.0250     0.0900 c3         1 552       0.215900
     21 C05          4.4610    -0.0930     0.0260 ca         1 552      -0.117300
     22 C04          5.1200     0.1310    -1.2000 ca         1 552      -0.055000
     23 C03          6.2290     0.9940    -1.2580 ca         1 552      -0.157500
     24 C26          4.9180     0.5570     1.1910 ca         1 552      -0.055000
     25 C27          6.0270     1.4190     1.1300 ca         1 552      -0.157500
     26 C02          6.6790     1.6340    -0.0930 ca         1 552       0.184000
     27 F01          7.7440     2.4630    -0.1510 f          1 552      -0.178000
     28 H15         -2.9920     0.4680    -1.5340 h1         1 552       0.101700
     29 H22         -4.5690     2.2910    -1.8500 h1         1 552       0.054200
     30 H22A        -5.3950     0.7660    -1.4310 h1         1 552       0.054200
     31 H21         -6.9330     2.9860    -1.6490 hc         1 552       0.057200
     32 H21A        -7.1980     1.9250    -0.2590 hc         1 552       0.057200
     33 H20         -5.3470     4.4110    -0.3290 hc         1 552       0.057200
     34 H20A        -6.7240     4.1720     0.7530 hc         1 552       0.057200
     35 H19         -5.5960     2.3370     1.9480 h1         1 552       0.054200
     36 H19A        -4.2340     3.4370     1.6130 h1         1 552       0.054200
     37 H14         -4.8550    -1.3490    -0.5260 ha         1 552       0.210000
     38 H13         -3.3430    -3.4270    -0.0930 ha         1 552       0.221000
     39 H06          3.2210    -1.5060     1.0770 h1         1 552       0.061200
     40 H06A         3.3660    -1.8130    -0.6670 h1         1 552       0.061200
     41 H04          4.7730    -0.3620    -2.1060 ha         1 552       0.121000
     42 H03          6.7390     1.1670    -2.2020 ha         1 552       0.133500
     43 H26          4.4130     0.3950     2.1420 ha         1 552       0.121000
     44 H27          6.3800     1.9200     2.0280 ha         1 552       0.133500
@<TRIPOS>BOND
     1     1     2 1   
     2     2     3 1   
     3     2     4 2   
     4     3    18 2   
     5     4     5 1   
     6     4    15 1   
     7     5     6 1   
     8     5    16 1   
     9     6     7 1   
    10     6    14 1   
    11     6    28 1   
    12     7     8 1   
    13     7    13 2   
    14     8     9 1   
    15     8    12 1   
    16     9    10 1   
    17     9    29 1   
    18     9    30 1   
    19    10    11 1   
    20    10    31 1   
    21    10    32 1   
    22    11    12 1   
    23    11    33 1   
    24    11    34 1   
    25    12    35 1   
    26    12    36 1   
    27    14    15 2   
    28    14    37 1   
    29    15    38 1   
    30    16    17 2   
    31    16    18 1   
    32    18    19 1   
    33    19    20 1   
    34    20    21 1   
    35    20    39 1   
    36    20    40 1   
    37    21    22 ar  
    38    21    24 ar  
    39    22    23 ar  
    40    22    41 1   
    41    23    26 ar  
    42    23    42 1   
    43    24    25 ar  
    44    24    43 1   
    45    25    26 ar  
    46    25    44 1   
    47    26    27 1   
@<TRIPOS>SUBSTRUCTURE
     1 552         1 TEMP              0 ****  ****    0 ROOT
