@<TRIPOS>MOLECULE
553
   34    36     1     0     0
SMALL
bcc


@<TRIPOS>ATOM
      1 O19         -1.3260    -3.8230     0.0410 o          1 553      -0.629500
      2 C15         -1.6920    -2.6540     0.0200 c          1 553       0.748100
      3 N14         -2.9970    -2.2880     0.0400 ns         1 553      -0.577900
      4 C13         -3.4600    -0.9560    -0.3040 c6         1 553       0.116000
      5 C12         -2.6500     0.1390     0.3980 c6         1 553      -0.010400
      6 C16         -2.9880     1.5320    -0.1330 c3         1 553      -0.114400
      7 C17         -4.4300     1.9050     0.1290 c3         1 553       0.165900
      8 F18         -4.6470     3.2220    -0.2740 f          1 553      -0.248300
      9 C11         -1.2180    -0.2270     0.2110 cc         1 553      -0.067600
     10 N8          -0.1450     0.5780     0.2380 na         1 553      -0.128100
     11 C10         -0.7700    -1.5210     0.0250 cd         1 553      -0.241600
     12 C9           0.6360    -1.4810    -0.0620 cd         1 553      -0.049000
     13 C7           1.0060    -0.1610     0.0670 cc         1 553      -0.221800
     14 C5           2.3310     0.4260     0.0300 ca         1 553       0.589800
     15 C6           2.5570     1.7980     0.1650 ca         1 553      -0.451600
     16 C1           3.8770     2.2050     0.1110 ca         1 553       0.488200
     17 N4           3.3400    -0.4230    -0.1420 nb         1 553      -0.778000
     18 C3           4.5720     0.0820    -0.1840 ca         1 553       0.915900
     19 N2           4.8930     1.3770    -0.0610 nb         1 553      -0.774000
     20 N20          5.5840    -0.7820    -0.3970 nv         1 553      -0.951500
     21 HN14        -3.6720    -3.0350    -0.0370 hn         1 553       0.315500
     22 H13         -3.4060    -0.7930    -1.3880 h1         1 553       0.043700
     23 H13A        -4.5090    -0.8930    -0.0190 h1         1 553       0.043700
     24 H12         -2.8730     0.1080     1.4720 hc         1 553       0.077700
     25 H16         -2.3530     2.2720     0.3620 hc         1 553       0.060200
     26 H16A        -2.7760     1.5830    -1.2040 hc         1 553       0.060200
     27 H17         -5.1250     1.2740    -0.4250 h1         1 553       0.045700
     28 H17A        -4.6650     1.8330     1.1940 h1         1 553       0.045700
     29 H9           1.3100    -2.3100    -0.2060 ha         1 553       0.183000
     30 H6           1.7680     2.5220     0.3040 ha         1 553       0.139000
     31 H1           4.1230     3.2570     0.2120 h4         1 553       0.019100
     32 HN20         5.4090    -1.7680    -0.3200 hn         1 553       0.442800
     33 HN2A         6.5290    -0.4680    -0.2640 hn         1 553       0.442800
     34 HN8         -0.1830     1.5780     0.3600 hn         1 553       0.299700
@<TRIPOS>BOND
     1     1     2 2   
     2     2     3 1   
     3     2    11 1   
     4     3     4 1   
     5     3    21 1   
     6     4     5 1   
     7     4    22 1   
     8     4    23 1   
     9     5     6 1   
    10     5     9 1   
    11     5    24 1   
    12     6     7 1   
    13     6    25 1   
    14     6    26 1   
    15     7     8 1   
    16     7    27 1   
    17     7    28 1   
    18     9    10 1   
    19     9    11 2   
    20    10    13 1   
    21    10    34 1   
    22    11    12 1   
    23    12    13 2   
    24    12    29 1   
    25    13    14 1   
    26    14    15 ar  
    27    14    17 ar  
    28    15    16 ar  
    29    15    30 1   
    30    16    19 ar  
    31    16    31 1   
    32    17    18 ar  
    33    18    19 ar  
    34    18    20 1   
    35    20    32 1   
    36    20    33 1   
@<TRIPOS>SUBSTRUCTURE
     1 553         1 TEMP              0 ****  ****    0 ROOT
