@<TRIPOS>MOLECULE
553
   34    36     1     0     0
SMALL
No Charge or Current Charge


@<TRIPOS>ATOM
      1 O19         -1.1960    -3.7740    -0.2210 o          1 553      -0.554000
      2 C15         -1.6150    -2.6310    -0.1330 c          1 553       0.605600
      3 N14         -2.9650    -2.3580    -0.1080 ns         1 553      -0.510900
      4 C13         -3.5770    -1.0160    -0.1830 c6         1 553       0.116000
      5 C12         -2.7040     0.1240     0.4210 c6         1 553      -0.010400
      6 C16         -3.1150     1.5300    -0.1150 c3         1 553      -0.114400
      7 C17         -4.5780     1.9280     0.1720 c3         1 553       0.184600
      8 F18         -4.8110     3.1800    -0.2910 f          1 553      -0.267000
      9 C11         -1.2470    -0.1750     0.1610 cc         1 553      -0.118300
     10 N8          -0.1500     0.6900     0.2050 na         1 553      -0.077000
     11 C10         -0.7490    -1.4300    -0.0630 cd         1 553      -0.241600
     12 C9           0.6590    -1.3550    -0.1640 cd         1 553      -0.031000
     13 C7           1.0210    -0.0400    -0.0170 cc         1 553      -0.272500
     14 C5           2.4060     0.4390    -0.0320 ca         1 553       0.261500
     15 C6           2.6930     1.8140     0.0630 ca         1 553      -0.303000
     16 C1           4.0400     2.2100     0.0510 ca         1 553       0.159900
     17 N4           3.4070    -0.4620    -0.1270 nb         1 553      -0.252000
     18 C3           4.6560     0.0250    -0.1300 ca         1 553       0.389900
     19 N2           5.0340     1.3080    -0.0450 nb         1 553      -0.248000
     20 N20          5.6550    -0.8870    -0.2240 nv         1 553      -1.061900
     21 HN14        -3.5740    -3.1660    -0.1430 hn         1 553       0.315500
     22 H13         -3.7560    -0.8050    -1.2470 h1         1 553       0.043700
     23 H13A        -4.5570    -1.0440     0.3160 h1         1 553       0.043700
     24 H12         -2.8660     0.1350     1.5080 hc         1 553       0.077700
     25 H16         -2.4700     2.2960     0.3320 hc         1 553       0.060200
     26 H16A        -2.9450     1.5780    -1.1970 hc         1 553       0.060200
     27 H17         -5.2710     1.2380    -0.3250 h1         1 553       0.045700
     28 H17A        -4.7710     1.9120     1.2520 h1         1 553       0.045700
     29 H9           1.3270    -2.1970    -0.3290 ha         1 553       0.165000
     30 H6           1.9050     2.5570     0.1410 ha         1 553       0.121000
     31 H1           4.3270     3.2580     0.1210 h4         1 553       0.019100
     32 HN20         5.4320    -1.8670    -0.0650 hn         1 553       0.498000
     33 HN2A         6.6060    -0.5950    -0.0080 hn         1 553       0.498000
     34 HN8         -0.2000     1.6880     0.3830 hn         1 553       0.350000
@<TRIPOS>BOND
     1     1     2 2   
     2     2     3 1   
     3     2    11 1   
     4     3     4 1   
     5     3    21 1   
     6     4     5 1   
     7     4    22 1   
     8     4    23 1   
     9     5     6 1   
    10     5     9 1   
    11     5    24 1   
    12     6     7 1   
    13     6    25 1   
    14     6    26 1   
    15     7     8 1   
    16     7    27 1   
    17     7    28 1   
    18     9    10 1   
    19     9    11 2   
    20    10    13 1   
    21    10    34 1   
    22    11    12 1   
    23    12    13 2   
    24    12    29 1   
    25    13    14 1   
    26    14    15 ar  
    27    14    17 ar  
    28    15    16 ar  
    29    15    30 1   
    30    16    19 ar  
    31    16    31 1   
    32    17    18 ar  
    33    18    19 ar  
    34    18    20 1   
    35    20    32 1   
    36    20    33 1   
@<TRIPOS>SUBSTRUCTURE
     1 553         1 TEMP              0 ****  ****    0 ROOT
