@<TRIPOS>MOLECULE
554
   38    38     1     0     0
SMALL
abcg2


@<TRIPOS>ATOM
      1 C1         193.3320   175.7320   165.3270 c          1 554       0.717000
      2 O1         194.0810   176.1800   164.4350 o          1 554      -0.717000
      3 C2         191.8790   175.4330   164.9580 cy         1 554       0.060500
      4 C3         191.2720   174.0730   165.3320 cy         1 554      -0.099400
      5 C4         190.5630   174.1590   163.9750 cy         1 554       0.122800
      6 C10        194.4150   173.0940   160.0780 c3         1 554      -0.053400
      7 C11        195.4750   173.4360   161.1310 c3         1 554       0.048300
      8 C12        196.2620   174.7130   160.7580 c          1 554       0.695000
      9 C6         190.6000   175.8570   161.3670 c3         1 554      -0.043400
     10 C7         191.6860   175.7030   160.2950 c3         1 554       0.067500
     11 C8         192.2370   177.1030   159.9060 c          1 554       0.705000
     12 N1         191.5390   175.1680   163.5570 nq         1 554      -0.633600
     13 N2         192.7080   174.7760   160.7220 n7         1 554      -0.796400
     14 O2         193.6220   175.5230   166.5220 o          1 554      -0.717000
     15 O4         193.3630   177.4400   160.3170 o          1 554      -0.730000
     16 O5         191.4610   177.7970   159.2140 o          1 554      -0.730000
     17 O6         196.2500   175.6210   161.6170 o          1 554      -0.728000
     18 O7         196.8350   174.7200   159.6540 o          1 554      -0.728000
     19 O8         194.9380   173.5380   162.4270 oh         1 554      -0.706000
     20 H1         191.2470   176.2400   165.3750 h1         1 554      -0.016300
     21 H2         190.6460   174.0250   166.2200 hc         1 554       0.026200
     22 H3         192.0150   173.2760   165.3740 hc         1 554       0.026200
     23 H4         189.5430   174.5600   164.0770 h1         1 554      -0.004800
     24 H5         190.5180   173.2590   163.3560 h1         1 554      -0.004800
     25 H6         191.8760   177.0060   162.6790 h1         1 554       0.029200
     26 H7         190.2330   176.7860   163.2700 h1         1 554       0.029200
     27 H8         193.8230   172.2480   160.4460 hc         1 554      -0.013800
     28 H9         194.9310   172.7280   159.1880 hc         1 554      -0.013800
     29 H10        196.1950   172.6040   161.1240 h1         1 554      -0.028300
     30 H11        189.8840   176.5960   161.0030 hc         1 554      -0.005300
     31 H12        190.0350   174.9200   161.4450 hc         1 554      -0.005300
     32 H13        191.1640   175.3250   159.3960 h1         1 554      -0.042300
     33 H14        194.0620   175.0100   159.1710 h1         1 554       0.002200
     34 H15        192.8340   173.8100   158.8350 h1         1 554       0.002200
     35 H17        192.2920   174.0310   161.2660 hn         1 554       0.390000
     36 H22        195.0480   174.4760   162.6540 ho         1 554       0.517000
     37 C5         191.0690   176.2730   162.7600 c3         1 554       0.184800
     38 C9         193.4780   174.2130   159.6380 c3         1 554       0.193800
@<TRIPOS>BOND
     1     1     2 1   
     2     1     3 1   
     3     1    14 1   
     4     3     4 1   
     5     3    12 1   
     6     3    20 1   
     7     4     5 1   
     8     4    21 1   
     9     4    22 1   
    10     5    12 1   
    11     5    23 1   
    12     5    24 1   
    13     6     7 1   
    14     6    27 1   
    15     6    28 1   
    16     6    38 1   
    17     7     8 1   
    18     7    19 1   
    19     7    29 1   
    20     8    17 1   
    21     8    18 1   
    22     9    10 1   
    23     9    30 1   
    24     9    31 1   
    25     9    37 1   
    26    10    11 1   
    27    10    13 1   
    28    10    32 1   
    29    11    15 1   
    30    11    16 1   
    31    12    37 1   
    32    13    35 1   
    33    13    38 1   
    34    19    36 1   
    35    25    37 1   
    36    26    37 1   
    37    33    38 1   
    38    34    38 1   
@<TRIPOS>SUBSTRUCTURE
     1 554         1 TEMP              0 ****  ****    0 ROOT
