@<TRIPOS>MOLECULE
554
   38    38     1     0     0
SMALL
No Charge or Current Charge


@<TRIPOS>ATOM
      1 C1         192.5170   175.6540   165.9210 c          1 554       0.717000
      2 O1         193.5240   176.2170   165.5050 o          1 554      -0.717000
      3 C2         191.2850   175.2550   164.9600 cy         1 554       0.060500
      4 C3         191.7960   173.7650   164.8150 cy         1 554      -0.099400
      5 C4         190.9830   173.8120   163.4800 cy         1 554       0.122800
      6 C10        194.3130   173.1960   161.0650 c3         1 554      -0.053400
      7 C11        195.7490   173.6830   160.7300 c3         1 554       0.048300
      8 C12        196.1040   173.4300   159.2060 c          1 554       0.695000
      9 C6         190.7540   176.0450   161.1240 c3         1 554      -0.043400
     10 C7         192.1560   176.3700   160.5280 c3         1 554       0.067500
     11 C8         192.4940   177.9100   160.7280 c          1 554       0.705000
     12 N1         191.3730   175.2510   163.4550 nq         1 554      -0.633600
     13 N2         193.1720   175.4090   161.0660 n7         1 554      -0.796400
     14 O2         192.4660   175.4600   167.1310 o          1 554      -0.717000
     15 O4         193.2670   178.2540   161.6160 o          1 554      -0.730000
     16 O5         192.0310   178.7080   159.9210 o          1 554      -0.730000
     17 O6         195.8670   174.3020   158.3770 o          1 554      -0.728000
     18 O7         196.7050   172.4000   158.9220 o          1 554      -0.728000
     19 O8         195.8570   175.0640   161.1500 oh         1 554      -0.706000
     20 H1         190.2800   175.3460   165.3910 h1         1 554      -0.016300
     21 H2         191.4350   173.0560   165.5680 hc         1 554       0.026200
     22 H3         192.8720   173.6080   164.6630 hc         1 554       0.026200
     23 H4         189.9090   173.6290   163.6080 h1         1 554      -0.004800
     24 H5         191.3840   173.1880   162.6760 h1         1 554      -0.004800
     25 H6         190.9650   177.2450   162.9330 h1         1 554       0.029200
     26 H7         189.5630   176.1640   162.9330 h1         1 554       0.029200
     27 H8         194.1880   173.1570   162.1550 hc         1 554      -0.013800
     28 H9         194.1990   172.1660   160.7070 hc         1 554      -0.013800
     29 H10        196.4490   173.0830   161.3280 h1         1 554      -0.028300
     30 H11        190.0220   176.7030   160.6410 hc         1 554      -0.005300
     31 H12        190.4540   175.0250   160.8540 hc         1 554      -0.005300
     32 H13        192.0960   176.2110   159.4420 h1         1 554      -0.042300
     33 H14        193.3200   174.1330   159.3720 h1         1 554       0.002200
     34 H15        192.2220   173.5610   160.6330 h1         1 554       0.002200
     35 H17        192.9210   175.2940   162.0630 hn         1 554       0.390000
     36 H22        194.9110   175.3940   161.0840 ho         1 554       0.517000
     37 C5         190.6250   176.2380   162.6600 c3         1 554       0.184800
     38 C9         193.1810   174.0630   160.4580 c3         1 554       0.193800
@<TRIPOS>BOND
     1     1     2 1   
     2     1     3 1   
     3     1    14 1   
     4     3     4 1   
     5     3    12 1   
     6     3    20 1   
     7     4     5 1   
     8     4    21 1   
     9     4    22 1   
    10     5    12 1   
    11     5    23 1   
    12     5    24 1   
    13     6     7 1   
    14     6    27 1   
    15     6    28 1   
    16     6    38 1   
    17     7     8 1   
    18     7    19 1   
    19     7    29 1   
    20     8    17 1   
    21     8    18 1   
    22     9    10 1   
    23     9    30 1   
    24     9    31 1   
    25     9    37 1   
    26    10    11 1   
    27    10    13 1   
    28    10    32 1   
    29    11    15 1   
    30    11    16 1   
    31    12    37 1   
    32    13    35 1   
    33    13    38 1   
    34    19    36 1   
    35    25    37 1   
    36    26    37 1   
    37    33    38 1   
    38    34    38 1   
@<TRIPOS>SUBSTRUCTURE
     1 554         1 TEMP              0 ****  ****    0 ROOT
