@<TRIPOS>MOLECULE
555
   33    35     1     0     0
SMALL
No Charge or Current Charge


@<TRIPOS>ATOM
      1 C1           0.4530    -0.9790     0.3510 ca         1 555      -0.100000
      2 C2          -0.3850    -2.0070     0.7920 ca         1 555      -0.112000
      3 C3           0.0360    -3.3410     0.7000 ca         1 555      -0.092000
      4 C4           1.3100    -3.6680     0.1760 ca         1 555      -0.032000
      5 C5           2.1660    -2.6230    -0.2770 ca         1 555      -0.013000
      6 C6           1.7140    -1.2820    -0.1840 ca         1 555      -0.108000
      7 C7           3.4420    -2.9370    -0.8270 ca         1 555      -0.130900
      8 C8           3.8100    -4.2940    -0.9590 ca         1 555      -0.068000
      9 C9           2.9660    -5.3150    -0.5110 ca         1 555      -0.107000
     10 C10          1.7180    -5.0300     0.0780 cp         1 555      -0.006000
     11 C11          0.8860    -6.1710     0.5660 cp         1 555      -0.087000
     12 C12          0.5390    -6.2910     1.9340 ca         1 555      -0.056500
     13 C13         -0.2280    -7.3770     2.3910 ca         1 555      -0.178500
     14 C14         -0.6510    -8.3650     1.4870 ca         1 555       0.143100
     15 C15         -0.3060    -8.2700     0.1320 ca         1 555      -0.178500
     16 C16          0.4610    -7.1840    -0.3260 ca         1 555      -0.056500
     17 O1          -1.3940    -9.4210     1.9210 oh         1 555      -0.533100
     18 C17          4.3900    -1.8770    -1.3190 ce         1 555       0.421800
     19 N1           5.3530    -2.1500    -2.1540 n2         1 555      -0.336700
     20 O2           6.1850    -1.0600    -2.4790 oh         1 555      -0.515000
     21 H1           0.1230     0.0560     0.4140 ha         1 555       0.114000
     22 H2          -1.3680    -1.7740     1.1970 ha         1 555       0.115000
     23 H3          -0.6490    -4.1160     1.0280 ha         1 555       0.122000
     24 H6           2.3160    -0.4490    -0.5320 ha         1 555       0.114000
     25 H8           4.7700    -4.5690    -1.3910 ha         1 555       0.129000
     26 H9           3.2890    -6.3490    -0.6040 ha         1 555       0.121000
     27 H12          0.8720    -5.5340     2.6410 ha         1 555       0.120000
     28 H13         -0.4850    -7.4450     3.4450 ha         1 555       0.123000
     29 H15         -0.6300    -9.0380    -0.5660 ha         1 555       0.123000
     30 H16          0.7240    -7.1200    -1.3800 ha         1 555       0.120000
     31 HO1         -1.5360    -9.3240     2.8870 ho         1 555       0.465000
     32 H17          4.3080    -0.8810    -0.8810 h4         1 555       0.008800
     33 HO2          6.8530    -1.4230    -3.1110 ho         1 555       0.470000
@<TRIPOS>BOND
     1     1     2 ar  
     2     1     6 ar  
     3     1    21 1   
     4     2     3 ar  
     5     2    22 1   
     6     3     4 ar  
     7     3    23 1   
     8     4     5 ar  
     9     4    10 ar  
    10     5     6 ar  
    11     5     7 ar  
    12     6    24 1   
    13     7     8 ar  
    14     7    18 1   
    15     8     9 ar  
    16     8    25 1   
    17     9    10 ar  
    18     9    26 1   
    19    10    11 1   
    20    11    12 ar  
    21    11    16 ar  
    22    12    13 ar  
    23    12    27 1   
    24    13    14 ar  
    25    13    28 1   
    26    14    15 ar  
    27    14    17 1   
    28    15    16 ar  
    29    15    29 1   
    30    16    30 1   
    31    17    31 1   
    32    18    19 2   
    33    18    32 1   
    34    19    20 1   
    35    20    33 1   
@<TRIPOS>SUBSTRUCTURE
     1 555         1 TEMP              0 ****  ****    0 ROOT
