@<TRIPOS>MOLECULE
555
   33    35     1     0     0
SMALL
abcg2


@<TRIPOS>ATOM
      1 C1           0.3830    -1.0570     0.1270 ca         1 555      -0.100000
      2 C2          -0.4430    -2.0960     0.5940 ca         1 555      -0.112000
      3 C3           0.0150    -3.3840     0.5910 ca         1 555      -0.092000
      4 C4           1.3160    -3.7000     0.1290 ca         1 555      -0.032000
      5 C5           2.1580    -2.6480    -0.3370 ca         1 555      -0.013000
      6 C6           1.6450    -1.3270    -0.3280 ca         1 555      -0.108000
      7 C7           3.4690    -2.9620    -0.8070 ca         1 555      -0.130900
      8 C8           3.8810    -4.2750    -0.8150 ca         1 555      -0.068000
      9 C9           3.0440    -5.3050    -0.3630 ca         1 555      -0.107000
     10 C10          1.7840    -5.0430     0.1120 cp         1 555      -0.006000
     11 C11          0.9290    -6.1540     0.5990 cp         1 555      -0.087000
     12 C12          0.8780    -6.4770     1.9510 ca         1 555      -0.056500
     13 C13          0.0920    -7.5240     2.4090 ca         1 555      -0.178500
     14 C14         -0.6670    -8.2680     1.5110 ca         1 555       0.143100
     15 C15         -0.6280    -7.9520     0.1540 ca         1 555      -0.178500
     16 C16          0.1630    -6.9050    -0.2880 ca         1 555      -0.056500
     17 O1          -1.4500    -9.2960     1.8950 oh         1 555      -0.533100
     18 C17          4.3730    -1.9020    -1.2620 ce         1 555       0.421800
     19 N1           5.3580    -2.1820    -2.0130 n2         1 555      -0.336700
     20 O2           6.1260    -1.0950    -2.2970 oh         1 555      -0.515000
     21 H1           0.0180    -0.0390     0.1240 ha         1 555       0.114000
     22 H2          -1.4400    -1.8740     0.9500 ha         1 555       0.115000
     23 H3          -0.6240    -4.1820     0.9460 ha         1 555       0.122000
     24 H6           2.2450    -0.5050    -0.6930 ha         1 555       0.114000
     25 H8           4.8760    -4.5220    -1.1600 ha         1 555       0.129000
     26 H9           3.4090    -6.3240    -0.3790 ha         1 555       0.121000
     27 H12          1.4640    -5.9080     2.6630 ha         1 555       0.120000
     28 H13          0.0730    -7.7570     3.4680 ha         1 555       0.123000
     29 H15         -1.2190    -8.5260    -0.5480 ha         1 555       0.123000
     30 H16          0.1810    -6.6690    -1.3450 ha         1 555       0.120000
     31 HO1         -1.3830    -9.4340     2.8460 ho         1 555       0.465000
     32 H17          4.2040    -0.8800    -0.9270 h4         1 555       0.008800
     33 HO2          6.8220    -1.4360    -2.8690 ho         1 555       0.470000
@<TRIPOS>BOND
     1     1     2 ar  
     2     1     6 ar  
     3     1    21 1   
     4     2     3 ar  
     5     2    22 1   
     6     3     4 ar  
     7     3    23 1   
     8     4     5 ar  
     9     4    10 ar  
    10     5     6 ar  
    11     5     7 ar  
    12     6    24 1   
    13     7     8 ar  
    14     7    18 1   
    15     8     9 ar  
    16     8    25 1   
    17     9    10 ar  
    18     9    26 1   
    19    10    11 1   
    20    11    12 ar  
    21    11    16 ar  
    22    12    13 ar  
    23    12    27 1   
    24    13    14 ar  
    25    13    28 1   
    26    14    15 ar  
    27    14    17 1   
    28    15    16 ar  
    29    15    29 1   
    30    16    30 1   
    31    17    31 1   
    32    18    19 2   
    33    18    32 1   
    34    19    20 1   
    35    20    33 1   
@<TRIPOS>SUBSTRUCTURE
     1 555         1 TEMP              0 ****  ****    0 ROOT
