@<TRIPOS>MOLECULE
556
   23    25     1     0     0
SMALL
No Charge or Current Charge


@<TRIPOS>ATOM
      1 CAF          3.6010    -0.1820    -0.0370 c5         1 556      -0.103700
      2 CAE          3.0560    -1.6750     0.0900 c5         1 556      -0.098400
      3 CAG          1.4870    -1.5210    -0.0250 c5         1 556       0.068600
      4 NAM          1.2700    -0.0990    -0.0350 na         1 556      -0.168500
      5 CAK          2.3670     0.6620    -0.0370 cc         1 556       0.395800
      6 NAH          2.1060     1.9570    -0.0480 nd         1 556      -0.658000
      7 CAD          0.7130     2.0150    -0.0510 cd         1 556       0.256900
      8 CAL          0.1820     0.7370    -0.0460 cc         1 556      -0.124000
      9 CAJ         -1.2090     0.3620    -0.0530 cc         1 556      -0.121000
     10 SAI         -1.8290    -1.2890    -0.0520 ss         1 556       0.176000
     11 CAB         -3.4870    -0.6930    -0.0650 cc         1 556      -0.238000
     12 CAA         -3.5190     0.6800    -0.0710 cd         1 556      -0.126000
     13 CAC         -2.2300     1.2800    -0.0640 cd         1 556      -0.121000
     14 H1           4.2630     0.0840     0.7940 hc         1 556       0.072200
     15 H2           4.1660    -0.0360    -0.9650 hc         1 556       0.072200
     16 H3           3.4600    -2.3310    -0.6900 hc         1 556       0.060200
     17 H4           3.3330    -2.1130     1.0560 hc         1 556       0.060200
     18 H5           1.1060    -1.9670    -0.9540 h1         1 556       0.065200
     19 H6           0.9710    -1.9900     0.8230 h1         1 556       0.065200
     20 H7           0.1850     2.9610    -0.0600 h4         1 556       0.040100
     21 H8          -4.3090    -1.3970    -0.0680 h4         1 556       0.151000
     22 H9          -4.4410     1.2530    -0.0790 ha         1 556       0.136000
     23 H10         -2.0810     2.3560    -0.0670 ha         1 556       0.140000
@<TRIPOS>BOND
     1     1     2 1   
     2     1     5 1   
     3     1    14 1   
     4     1    15 1   
     5     2     3 1   
     6     2    16 1   
     7     2    17 1   
     8     3     4 1   
     9     3    18 1   
    10     3    19 1   
    11     4     5 1   
    12     4     8 1   
    13     5     6 2   
    14     6     7 1   
    15     7     8 2   
    16     7    20 1   
    17     8     9 1   
    18     9    10 1   
    19     9    13 2   
    20    10    11 1   
    21    11    12 2   
    22    11    21 1   
    23    12    13 1   
    24    12    22 1   
    25    13    23 1   
@<TRIPOS>SUBSTRUCTURE
     1 556         1 TEMP              0 ****  ****    0 ROOT
