@<TRIPOS>MOLECULE
556
   23    25     1     0     0
SMALL
abcg2


@<TRIPOS>ATOM
      1 CAF          3.5760    -0.2470    -0.1410 c5         1 556      -0.103700
      2 CAE          2.9580    -1.5770     0.3360 c5         1 556      -0.098400
      3 CAG          1.4590    -1.5020    -0.0150 c5         1 556       0.068600
      4 NAM          1.2520    -0.0680    -0.0980 na         1 556      -0.168500
      5 CAK          2.3870     0.6480    -0.1600 cc         1 556       0.395800
      6 NAH          2.1580     1.9340    -0.2500 nd         1 556      -0.658000
      7 CAD          0.7970     2.0430    -0.2540 cd         1 556       0.256900
      8 CAL          0.1980     0.8040    -0.1610 cc         1 556      -0.124000
      9 CAJ         -1.1980     0.4400    -0.1180 cc         1 556      -0.121000
     10 SAI         -1.7710    -1.0760    -0.7220 ss         1 556       0.176000
     11 CAB         -3.4000    -0.6760    -0.3720 cc         1 556      -0.238000
     12 CAA         -3.5020     0.5690     0.1700 cd         1 556      -0.126000
     13 CAC         -2.2440     1.2070     0.3210 cd         1 556      -0.121000
     14 H1           4.3660     0.1090     0.5200 hc         1 556       0.072200
     15 H2           4.0050    -0.3350    -1.1430 hc         1 556       0.072200
     16 H3           3.4290    -2.4460    -0.1190 hc         1 556       0.060200
     17 H4           3.0710    -1.6660     1.4160 hc         1 556       0.060200
     18 H5           1.2330    -1.9740    -0.9730 h1         1 556       0.065200
     19 H6           0.8280    -1.9520     0.7500 h1         1 556       0.065200
     20 H7           0.3010     2.9990    -0.3300 h4         1 556       0.040100
     21 H8          -4.1890    -1.3820    -0.5790 h4         1 556       0.151000
     22 H9          -4.4410     1.0130     0.4650 ha         1 556       0.136000
     23 H10         -2.1120     2.1900     0.7510 ha         1 556       0.140000
@<TRIPOS>BOND
     1     1     2 1   
     2     1     5 1   
     3     1    14 1   
     4     1    15 1   
     5     2     3 1   
     6     2    16 1   
     7     2    17 1   
     8     3     4 1   
     9     3    18 1   
    10     3    19 1   
    11     4     5 1   
    12     4     8 1   
    13     5     6 2   
    14     6     7 1   
    15     7     8 2   
    16     7    20 1   
    17     8     9 1   
    18     9    10 1   
    19     9    13 2   
    20    10    11 1   
    21    11    12 2   
    22    11    21 1   
    23    12    13 1   
    24    12    22 1   
    25    13    23 1   
@<TRIPOS>SUBSTRUCTURE
     1 556         1 TEMP              0 ****  ****    0 ROOT
