@<TRIPOS>MOLECULE
557
   49    50     1     0     0
SMALL
No Charge or Current Charge


@<TRIPOS>ATOM
      1 C1          -0.6440    -0.7260    -0.8830 ca         1 557      -0.103500
      2 C2          -1.1010     1.5350    -0.1210 ca         1 557      -0.103500
      3 C3           0.2580     1.8600    -0.2720 ca         1 557      -0.092000
      4 C4           1.1780     0.8970    -0.7300 ca         1 557      -0.083300
      5 C5           0.7150    -0.4000    -1.0350 ca         1 557      -0.092000
      6 C6           2.6570     1.2600    -0.8900 c3         1 557      -0.016400
      7 C7           3.0980     1.1330    -2.3700 c3         1 557      -0.090100
      8 C9           3.5350     0.4250     0.0760 c3         1 557       0.202800
      9 N10          4.9250     0.9160     0.0900 n7         1 557      -0.864300
     10 S11          6.0460     0.1310     1.0410 s6         1 557       1.164100
     11 C12         -1.5650     0.2380    -0.4230 ca         1 557       0.009800
     12 N13         -2.9180    -0.0890    -0.2680 na         1 557       0.242000
     13 N14         -3.8930     0.7760    -0.6980 nc         1 557      -0.460800
     14 C15         -4.9970     0.0960    -0.4170 cd         1 557       0.138300
     15 C16         -4.7250    -1.1800     0.1630 cd         1 557      -0.157300
     16 C17         -3.3610    -1.2910     0.2540 cc         1 557      -0.132000
     17 C18         -6.3800     0.6660    -0.7150 c3         1 557       0.292700
     18 F19         -7.1760     0.6450     0.3790 f          1 557      -0.107333
     19 F20         -6.3420     1.9520    -1.1420 f          1 557      -0.107333
     20 F21         -7.0140    -0.0440    -1.6760 f          1 557      -0.107333
     21 O22         -5.1610    -3.4820     0.8080 oh         1 557      -0.664000
     22 C23         -5.7560    -2.1960     0.5960 c3         1 557       0.241900
     23 O24          5.4560     0.0330     2.3780 o          1 557      -0.523500
     24 C25          6.1640    -1.5300     0.2920 c3         1 557      -0.306700
     25 C26          6.5220    -1.4930    -1.2200 c3         1 557      -0.075600
     26 C27          7.1490    -2.4260     1.0870 c3         1 557      -0.075600
     27 O28          7.3030     0.8570     0.8480 o          1 557      -0.523500
     28 H1          -0.9790    -1.7310    -1.1330 ha         1 557       0.136000
     29 H2          -1.7940     2.2930     0.2380 ha         1 557       0.136000
     30 H3           0.5930     2.8670    -0.0310 ha         1 557       0.121500
     31 H5           1.4060    -1.1600    -1.3940 ha         1 557       0.121500
     32 H6           2.7910     2.3120    -0.6080 hc         1 557       0.076700
     33 H7           3.0910     0.0870    -2.6980 hc         1 557       0.040033
     34 H7A          2.4190     1.6980    -3.0190 hc         1 557       0.040033
     35 H7B          4.1080     1.5330    -2.5190 hc         1 557       0.040033
     36 H9           3.1010     0.4980     1.0830 h1         1 557       0.052700
     37 H9A          3.4890    -0.6310    -0.2250 h1         1 557       0.052700
     38 HN10         5.3320     0.7850    -0.8330 hn         1 557       0.482000
     39 H17         -2.7120    -2.0710     0.6280 h4         1 557       0.175000
     40 HO22        -5.8860    -4.0840     1.0870 ho         1 557       0.451000
     41 H23         -6.2340    -1.8400     1.5180 h1         1 557       0.037200
     42 H23A        -6.5340    -2.2640    -0.1760 h1         1 557       0.037200
     43 H25          5.1630    -1.9600     0.4020 h1         1 557       0.087700
     44 H26          6.6010    -2.5120    -1.6190 hc         1 557       0.050700
     45 H26A         5.7540    -0.9760    -1.8070 hc         1 557       0.050700
     46 H26B         7.4840    -0.9930    -1.3880 hc         1 557       0.050700
     47 H27          6.8560    -2.4930     2.1420 hc         1 557       0.050700
     48 H27A         7.1610    -3.4440     0.6790 hc         1 557       0.050700
     49 H27B         8.1710    -2.0290     1.0400 hc         1 557       0.050700
@<TRIPOS>BOND
     1     1     5 ar  
     2     1    11 ar  
     3     1    28 1   
     4     2     3 ar  
     5     2    11 ar  
     6     2    29 1   
     7     3     4 ar  
     8     3    30 1   
     9     4     5 ar  
    10     4     6 1   
    11     5    31 1   
    12     6     7 1   
    13     6     8 1   
    14     6    32 1   
    15     7    33 1   
    16     7    34 1   
    17     7    35 1   
    18     8     9 1   
    19     8    36 1   
    20     8    37 1   
    21     9    10 1   
    22     9    38 1   
    23    10    23 2   
    24    10    24 1   
    25    10    27 2   
    26    11    12 1   
    27    12    13 1   
    28    12    16 1   
    29    13    14 2   
    30    14    15 1   
    31    14    17 1   
    32    15    16 2   
    33    15    22 1   
    34    16    39 1   
    35    17    18 1   
    36    17    19 1   
    37    17    20 1   
    38    21    22 1   
    39    21    40 1   
    40    22    41 1   
    41    22    42 1   
    42    24    25 1   
    43    24    26 1   
    44    24    43 1   
    45    25    44 1   
    46    25    45 1   
    47    25    46 1   
    48    26    47 1   
    49    26    48 1   
    50    26    49 1   
@<TRIPOS>SUBSTRUCTURE
     1 557         1 TEMP              0 ****  ****    0 ROOT
