@<TRIPOS>MOLECULE
557
   49    50     1     0     0
SMALL
abcg2


@<TRIPOS>ATOM
      1 C1          -0.6470    -0.6280    -1.2480 ca         1 557      -0.103500
      2 C2          -0.9830     1.3960     0.0090 ca         1 557      -0.103500
      3 C3           0.3380     1.7450    -0.2250 ca         1 557      -0.092000
      4 C4           1.1880     0.9250    -0.9600 ca         1 557      -0.083300
      5 C5           0.6730    -0.2680    -1.4620 ca         1 557      -0.092000
      6 C6           2.6300     1.3140    -1.1860 c3         1 557      -0.016400
      7 C7           3.0190     1.2220    -2.6620 c3         1 557      -0.090100
      8 C9           3.5160     0.4370    -0.2950 c3         1 557       0.202800
      9 N10          4.9170     0.8290    -0.4090 n7         1 557      -0.864300
     10 S11          5.9970     0.2910     0.7180 s6         1 557       1.164100
     11 C12         -1.4750     0.2050    -0.5070 ca         1 557       0.009800
     12 N13         -2.8210    -0.1570    -0.2840 na         1 557       0.242000
     13 N14         -3.7430     0.7750    -0.1070 nc         1 557      -0.460800
     14 C15         -4.8670     0.1140     0.0660 cd         1 557       0.138300
     15 C16         -4.6830    -1.2800    -0.0010 cd         1 557      -0.157300
     16 C17         -3.3370    -1.4100    -0.2290 cc         1 557      -0.132000
     17 C18         -6.1390     0.8420     0.3050 c3         1 557       0.292700
     18 F19         -6.6170     0.6090     1.5370 f          1 557      -0.107333
     19 F20         -5.9990     2.1590     0.1730 f          1 557      -0.107333
     20 F21         -7.0920     0.4450    -0.5510 f          1 557      -0.107333
     21 O22         -4.9960    -3.5910     0.2400 oh         1 557      -0.664000
     22 C23         -5.6880    -2.3760     0.1200 c3         1 557       0.241900
     23 O24          5.4960     0.7010     2.0240 o          1 557      -0.523500
     24 C25          5.9890    -1.5150     0.6590 c3         1 557      -0.306700
     25 C26          6.3320    -2.0010    -0.7390 c3         1 557      -0.075600
     26 C27          6.9470    -2.0450     1.7180 c3         1 557      -0.075600
     27 O28          7.3040     0.7640     0.2800 o          1 557      -0.523500
     28 H1          -1.0220    -1.5460    -1.6810 ha         1 557       0.136000
     29 H2          -1.6220     2.0470     0.5890 ha         1 557       0.136000
     30 H3           0.7110     2.6780     0.1800 ha         1 557       0.121500
     31 H5           1.2970    -0.9290    -2.0510 ha         1 557       0.121500
     32 H6           2.7570     2.3490    -0.8580 hc         1 557       0.076700
     33 H7           3.0090     0.1910    -3.0200 hc         1 557       0.040033
     34 H7A          2.3270     1.7960    -3.2770 hc         1 557       0.040033
     35 H7B          4.0140     1.6290    -2.8430 hc         1 557       0.040033
     36 H9           3.2110     0.5620     0.7440 h1         1 557       0.052700
     37 H9A          3.3660    -0.6180    -0.5570 h1         1 557       0.052700
     38 HN10         5.2970     0.7650    -1.3470 hn         1 557       0.482000
     39 H17         -2.7210    -2.2870    -0.3300 h4         1 557       0.175000
     40 HO22        -5.6340    -4.3080     0.1810 ho         1 557       0.451000
     41 H23         -6.3380    -2.1900     0.9860 h1         1 557       0.037200
     42 H23A        -6.3400    -2.3660    -0.7630 h1         1 557       0.037200
     43 H25          4.9650    -1.8000     0.9170 h1         1 557       0.087700
     44 H26          6.2930    -3.0900    -0.7520 hc         1 557       0.050700
     45 H26A         5.6270    -1.6470    -1.4920 hc         1 557       0.050700
     46 H26B         7.3360    -1.6990    -1.0320 hc         1 557       0.050700
     47 H27          6.6840    -1.7030     2.7180 hc         1 557       0.050700
     48 H27A         6.9000    -3.1340     1.7170 hc         1 557       0.050700
     49 H27B         7.9750    -1.7550     1.5050 hc         1 557       0.050700
@<TRIPOS>BOND
     1     1     5 ar  
     2     1    11 ar  
     3     1    28 1   
     4     2     3 ar  
     5     2    11 ar  
     6     2    29 1   
     7     3     4 ar  
     8     3    30 1   
     9     4     5 ar  
    10     4     6 1   
    11     5    31 1   
    12     6     7 1   
    13     6     8 1   
    14     6    32 1   
    15     7    33 1   
    16     7    34 1   
    17     7    35 1   
    18     8     9 1   
    19     8    36 1   
    20     8    37 1   
    21     9    10 1   
    22     9    38 1   
    23    10    23 2   
    24    10    24 1   
    25    10    27 2   
    26    11    12 1   
    27    12    13 1   
    28    12    16 1   
    29    13    14 2   
    30    14    15 1   
    31    14    17 1   
    32    15    16 2   
    33    15    22 1   
    34    16    39 1   
    35    17    18 1   
    36    17    19 1   
    37    17    20 1   
    38    21    22 1   
    39    21    40 1   
    40    22    41 1   
    41    22    42 1   
    42    24    25 1   
    43    24    26 1   
    44    24    43 1   
    45    25    44 1   
    46    25    45 1   
    47    25    46 1   
    48    26    47 1   
    49    26    48 1   
    50    26    49 1   
@<TRIPOS>SUBSTRUCTURE
     1 557         1 TEMP              0 ****  ****    0 ROOT
