@<TRIPOS>MOLECULE
558
   51    55     1     0     0
SMALL
bcc


@<TRIPOS>ATOM
      1 CAU         -4.7010     0.4490     0.3080 ca         1 558      -0.035000
      2 CAT         -5.8510    -0.2990     0.2470 ca         1 558      -0.319300
      3 CAS         -5.7410    -1.7010     0.1750 ca         1 558       0.679200
      4 NBA         -6.8400    -2.4870     0.0570 nv         1 558      -0.951500
      5 NAR         -4.5540    -2.3080     0.1820 nb         1 558      -0.746000
      6 CAQ         -3.4590    -1.5630     0.2410 ca         1 558       0.472200
      7 CAO         -3.4470    -0.1750     0.3000 cp         1 558      -0.229300
      8 CAM         -2.1890     0.5830     0.3680 cp         1 558       0.011000
      9 CAN         -1.0520     0.1370    -0.3010 ca         1 558      -0.142000
     10 CAC          0.1580     0.8170    -0.2210 ca         1 558       0.148600
     11 CAL         -2.1040     1.7740     1.0950 ca         1 558      -0.126000
     12 CAK         -0.9220     2.4870     1.1480 ca         1 558      -0.118000
     13 CAB          0.2140     2.0010     0.5160 ca         1 558      -0.011200
     14 NAA          1.4280     2.7120     0.5570 na         1 558      -0.264800
     15 CAJ          2.1040     3.2310     1.6230 cc         1 558       0.404800
     16 CBC          1.6530     3.1610     3.0330 c3         1 558      -0.122400
     17 NAI          3.2100     3.7690     1.1990 nd         1 558      -0.360000
     18 NAH          3.2760     3.6080    -0.1500 nd         1 558      -0.356000
     19 CAG          2.2110     2.9690    -0.5270 cc         1 558       0.403800
     20 CAF          1.8420     2.5520    -1.9070 c3         1 558      -0.101000
     21 CBB          0.5590     3.2170    -2.4160 c3         1 558      -0.092100
     22 CAE          1.8440     1.0200    -2.0270 c3         1 558       0.232800
     23 NAD          1.3130     0.3260    -0.8610 nh         1 558      -0.572400
     24 CAP          1.6200    -1.0250    -0.6980 ca         1 558       0.173600
     25 CAV          1.4030    -1.6460     0.5390 ca         1 558      -0.171500
     26 CAW          1.7180    -2.9770     0.7370 ca         1 558      -0.090000
     27 CAX          2.2720    -3.7140    -0.3000 ca         1 558      -0.003600
     28 CLB          2.6750    -5.3840    -0.0510 cl         1 558      -0.113400
     29 CAY          2.5070    -3.1230    -1.5270 ca         1 558      -0.090000
     30 CAZ          2.1760    -1.7890    -1.7270 ca         1 558      -0.171500
     31 H1          -4.7760     1.5280     0.3440 ha         1 558       0.135000
     32 H2          -6.8230     0.1760     0.2420 ha         1 558       0.141000
     33 H3          -7.7380    -2.1070     0.2990 hn         1 558       0.426300
     34 H4          -6.7260    -3.4710     0.2330 hn         1 558       0.426300
     35 H5          -2.5240    -2.1150     0.2650 h4         1 558       0.021100
     36 H6          -1.0990    -0.7580    -0.9090 ha         1 558       0.150000
     37 H7          -2.9660     2.1510     1.6290 ha         1 558       0.140000
     38 H8          -0.8830     3.4220     1.6890 ha         1 558       0.147000
     39 H9           1.3020     2.1620     3.2910 hc         1 558       0.059367
     40 H10          2.4860     3.4130     3.6860 hc         1 558       0.059367
     41 H11          0.8440     3.8620     3.2380 hc         1 558       0.059367
     42 H12          2.6550     2.9000    -2.5470 hc         1 558       0.087700
     43 H13          0.6210     4.3010    -2.3130 hc         1 558       0.045367
     44 H14          0.4330     2.9910    -3.4750 hc         1 558       0.045367
     45 H15         -0.3390     2.8810    -1.9010 hc         1 558       0.045367
     46 H16          1.3120     0.7390    -2.9460 h1         1 558       0.051200
     47 H17          2.8790     0.6960    -2.1440 h1         1 558       0.051200
     48 H18          0.9880    -1.0850     1.3660 ha         1 558       0.139500
     49 H19          1.5420    -3.4300     1.7030 ha         1 558       0.146500
     50 H20          2.9340    -3.6920    -2.3410 ha         1 558       0.146500
     51 H21          2.3490    -1.3670    -2.7070 ha         1 558       0.139500
@<TRIPOS>BOND
     1     1     2 ar  
     2     1     7 ar  
     3     1    31 1   
     4     2     3 ar  
     5     2    32 1   
     6     3     4 1   
     7     3     5 ar  
     8     4    33 1   
     9     4    34 1   
    10     5     6 ar  
    11     6     7 ar  
    12     6    35 1   
    13     7     8 1   
    14     8     9 ar  
    15     8    11 ar  
    16     9    10 ar  
    17     9    36 1   
    18    10    13 ar  
    19    10    23 1   
    20    11    12 ar  
    21    11    37 1   
    22    12    13 ar  
    23    12    38 1   
    24    13    14 1   
    25    14    15 1   
    26    14    19 1   
    27    15    16 1   
    28    15    17 2   
    29    16    39 1   
    30    16    40 1   
    31    16    41 1   
    32    17    18 1   
    33    18    19 2   
    34    19    20 1   
    35    20    21 1   
    36    20    22 1   
    37    20    42 1   
    38    21    43 1   
    39    21    44 1   
    40    21    45 1   
    41    22    23 1   
    42    22    46 1   
    43    22    47 1   
    44    23    24 1   
    45    24    25 ar  
    46    24    30 ar  
    47    25    26 ar  
    48    25    48 1   
    49    26    27 ar  
    50    26    49 1   
    51    27    28 1   
    52    27    29 ar  
    53    29    30 ar  
    54    29    50 1   
    55    30    51 1   
@<TRIPOS>SUBSTRUCTURE
     1 558         1 TEMP              0 ****  ****    0 ROOT
