@<TRIPOS>MOLECULE
558
   51    55     1     0     0
SMALL
No Charge or Current Charge


@<TRIPOS>ATOM
      1 CAU         -4.7920     0.5010     0.3430 ca         1 558      -0.017000
      2 CAT         -5.9630    -0.2690     0.2850 ca         1 558      -0.236000
      3 CAS         -5.8400    -1.6540     0.1850 ca         1 558       0.613900
      4 NBA         -6.8810    -2.4850     0.1300 nv         1 558      -1.061900
      5 NAR         -4.6960    -2.3170     0.1460 nb         1 558      -0.746000
      6 CAQ         -3.5630    -1.5780     0.2000 ca         1 558       0.406900
      7 CAO         -3.5400    -0.1600     0.3000 cp         1 558      -0.164000
      8 CAM         -2.2500     0.5970     0.3590 cp         1 558       0.011000
      9 CAN         -1.1030     0.1410    -0.3330 ca         1 558      -0.124000
     10 CAC          0.1210     0.8350    -0.2930 ca         1 558       0.287000
     11 CAL         -2.1360     1.7930     1.1040 ca         1 558      -0.108000
     12 CAK         -0.9240     2.4970     1.1620 ca         1 558      -0.100000
     13 CAB          0.2160     2.0220     0.4850 ca         1 558      -0.011200
     14 NAA          1.4050     2.7580     0.5440 na         1 558      -0.264800
     15 CAJ          2.0430     3.2140     1.6680 cc         1 558       0.404800
     16 CBC          1.6020     3.0390     3.0950 c3         1 558      -0.122400
     17 NAI          3.1610     3.8100     1.2760 nd         1 558      -0.360000
     18 NAH          3.2560     3.6970    -0.1010 nd         1 558      -0.356000
     19 CAG          2.1930     3.0320    -0.5340 cc         1 558       0.403800
     20 CAF          1.9110     2.6070    -1.9460 c3         1 558      -0.101000
     21 CBB          0.6290     3.2480    -2.5430 c3         1 558      -0.092100
     22 CAE          1.9410     1.0660    -2.0530 c3         1 558       0.232800
     23 NAD          1.2260     0.2820    -1.0020 nh         1 558      -0.849200
     24 CAP          1.6200    -1.0600    -0.7620 ca         1 558       0.312000
     25 CAV          1.4780    -1.6190     0.5270 ca         1 558      -0.153500
     26 CAW          1.8610    -2.9480     0.7830 ca         1 558      -0.072000
     27 CAX          2.3920    -3.7350    -0.2500 ca         1 558       0.088000
     28 ClB          2.8710    -5.3970     0.0670 cl         1 558      -0.205000
     29 CAY          2.5400    -3.1950    -1.5370 ca         1 558      -0.072000
     30 CAZ          2.1570    -1.8650    -1.7900 ca         1 558      -0.153500
     31 H1          -4.8560     1.5850     0.4060 ha         1 558       0.117000
     32 H2          -6.9410     0.2020     0.3100 ha         1 558       0.123000
     33 H3          -7.7630    -2.1490     0.4990 hn         1 558       0.481500
     34 H4          -6.6620    -3.4590     0.3010 hn         1 558       0.481500
     35 H5          -2.6330    -2.1440     0.1770 h4         1 558       0.021100
     36 H6          -1.1640    -0.7620    -0.9320 ha         1 558       0.132000
     37 H7          -2.9920     2.1770     1.6530 ha         1 558       0.122000
     38 H8          -0.8790     3.4230     1.7320 ha         1 558       0.129000
     39 H9           1.1140     2.0680     3.2400 hc         1 558       0.059367
     40 H10          2.4590     3.0870     3.7750 hc         1 558       0.059367
     41 H11          0.8980     3.8270     3.3820 hc         1 558       0.059367
     42 H12          2.7390     2.9680    -2.5670 hc         1 558       0.087700
     43 H13          0.6760     4.3410    -2.4640 hc         1 558       0.045367
     44 H14          0.5300     2.9910    -3.6050 hc         1 558       0.045367
     45 H15         -0.2790     2.9100    -2.0310 hc         1 558       0.045367
     46 H16          1.5650     0.7800    -3.0450 h1         1 558       0.051200
     47 H17          3.0020     0.7800    -2.0210 h1         1 558       0.051200
     48 H18          1.0800    -1.0190     1.3400 ha         1 558       0.121500
     49 H19          1.7490    -3.3650     1.7800 ha         1 558       0.128500
     50 H20          2.9490    -3.8060    -2.3380 ha         1 558       0.128500
     51 H21          2.2670    -1.4730    -2.7960 ha         1 558       0.121500
@<TRIPOS>BOND
     1     1     2 ar  
     2     1     7 ar  
     3     1    31 1   
     4     2     3 ar  
     5     2    32 1   
     6     3     4 1   
     7     3     5 ar  
     8     4    33 1   
     9     4    34 1   
    10     5     6 ar  
    11     6     7 ar  
    12     6    35 1   
    13     7     8 1   
    14     8     9 ar  
    15     8    11 ar  
    16     9    10 ar  
    17     9    36 1   
    18    10    13 ar  
    19    10    23 1   
    20    11    12 ar  
    21    11    37 1   
    22    12    13 ar  
    23    12    38 1   
    24    13    14 1   
    25    14    15 1   
    26    14    19 1   
    27    15    16 1   
    28    15    17 2   
    29    16    39 1   
    30    16    40 1   
    31    16    41 1   
    32    17    18 1   
    33    18    19 2   
    34    19    20 1   
    35    20    21 1   
    36    20    22 1   
    37    20    42 1   
    38    21    43 1   
    39    21    44 1   
    40    21    45 1   
    41    22    23 1   
    42    22    46 1   
    43    22    47 1   
    44    23    24 1   
    45    24    25 ar  
    46    24    30 ar  
    47    25    26 ar  
    48    25    48 1   
    49    26    27 ar  
    50    26    49 1   
    51    27    28 1   
    52    27    29 ar  
    53    29    30 ar  
    54    29    50 1   
    55    30    51 1   
@<TRIPOS>SUBSTRUCTURE
     1 558         1 TEMP              0 ****  ****    0 ROOT
