@<TRIPOS>MOLECULE
559
   51    55     1     0     0
SMALL
bcc


@<TRIPOS>ATOM
      1 CAU         -4.4190    -0.0910    -1.2540 ca         1 559      -0.036000
      2 CAT         -5.5980    -0.7830    -1.1260 ca         1 559      -0.317300
      3 CAS         -5.8590    -1.4580     0.0810 ca         1 559       0.676200
      4 NBA         -7.0240    -2.1290     0.2730 nv         1 559      -0.948500
      5 NAR         -4.9940    -1.4320     1.0950 nb         1 559      -0.746000
      6 CAQ         -3.8620    -0.7570     0.9480 ca         1 559       0.472200
      7 CAO         -3.4960    -0.0640    -0.1990 cp         1 559      -0.227300
      8 CAM         -2.2190     0.6560    -0.2940 cp         1 559       0.009000
      9 CAN         -1.0730     0.1620     0.3260 ca         1 559      -0.141000
     10 CAC          0.1460     0.8240     0.2410 ca         1 559       0.145600
     11 CAL         -2.1230     1.8620    -0.9940 ca         1 559      -0.124000
     12 CAK         -0.9250     2.5470    -1.0650 ca         1 559      -0.118000
     13 CAB          0.2120     2.0240    -0.4670 ca         1 559      -0.009200
     14 NAA          1.4410     2.7080    -0.5110 na         1 559      -0.264800
     15 CAJ          2.1060     3.2440    -1.5770 cc         1 559       0.403800
     16 CBC          1.6270     3.2220    -2.9790 c3         1 559      -0.122400
     17 NAI          3.2340     3.7430    -1.1600 nd         1 559      -0.360000
     18 NAH          3.3240     3.5390     0.1820 nd         1 559      -0.357000
     19 CAG          2.2520     2.9140     0.5630 cc         1 559       0.405800
     20 CAF          1.9010     2.4690     1.9400 c3         1 559      -0.101000
     21 CBB          0.6470     3.1550     2.4920 c3         1 559      -0.092100
     22 CAE          1.8610     0.9340     2.0200 c3         1 559       0.231800
     23 NAD          1.3100     0.2920     0.8340 nh         1 559      -0.573400
     24 CAP          1.6000    -1.0520     0.6070 ca         1 559       0.173600
     25 CAV          2.1640    -1.8680     1.5910 ca         1 559      -0.171000
     26 CAW          2.4800    -3.1940     1.3240 ca         1 559      -0.089500
     27 CAX          2.2200    -3.7260     0.0750 ca         1 559      -0.004600
     28 CLB          2.6040    -5.3860    -0.2570 cl         1 559      -0.114400
     29 CAY          1.6550    -2.9370    -0.9180 ca         1 559      -0.089500
     30 CAZ          1.3570    -1.6140    -0.6540 ca         1 559      -0.171000
     31 H1          -4.2010     0.4170    -2.1850 ha         1 559       0.135000
     32 H2          -6.3120    -0.8190    -1.9390 ha         1 559       0.142000
     33 H3          -7.5620    -2.3970    -0.5340 hn         1 559       0.424300
     34 H4          -7.0620    -2.7740     1.0440 hn         1 559       0.424300
     35 H5          -3.2060    -0.7560     1.8130 h4         1 559       0.018100
     36 H6          -1.1100    -0.7780     0.8630 ha         1 559       0.149000
     37 H7          -3.0000     2.2920    -1.4590 ha         1 559       0.141000
     38 H8          -0.8810     3.5000    -1.5750 ha         1 559       0.148000
     39 H9           0.8250     3.9400    -3.1480 hc         1 559       0.059033
     40 H10          2.4510     3.4810    -3.6400 hc         1 559       0.059033
     41 H11          1.2560     2.2360    -3.2580 hc         1 559       0.059033
     42 H12          2.7370     2.7790     2.5710 hc         1 559       0.087700
     43 H13         -0.2690     2.8550     1.9880 hc         1 559       0.045367
     44 H14          0.5380     2.9050     3.5470 hc         1 559       0.045367
     45 H15          0.7360     4.2390     2.4150 hc         1 559       0.045367
     46 H16          2.8870     0.5790     2.1250 h1         1 559       0.051200
     47 H17          1.3230     0.6420     2.9310 h1         1 559       0.051200
     48 H18          2.3570    -1.4930     2.5860 ha         1 559       0.139500
     49 H19          2.9150    -3.8040     2.1040 ha         1 559       0.146500
     50 H20          1.4600    -3.3440    -1.9010 ha         1 559       0.146500
     51 H21          0.9340    -1.0110    -1.4470 ha         1 559       0.139500
@<TRIPOS>BOND
     1     1     2 ar  
     2     1     7 ar  
     3     1    31 1   
     4     2     3 ar  
     5     2    32 1   
     6     3     4 1   
     7     3     5 ar  
     8     4    33 1   
     9     4    34 1   
    10     5     6 ar  
    11     6     7 ar  
    12     6    35 1   
    13     7     8 1   
    14     8     9 ar  
    15     8    11 ar  
    16     9    10 ar  
    17     9    36 1   
    18    10    13 ar  
    19    10    23 1   
    20    11    12 ar  
    21    11    37 1   
    22    12    13 ar  
    23    12    38 1   
    24    13    14 1   
    25    14    15 1   
    26    14    19 1   
    27    15    16 1   
    28    15    17 2   
    29    16    39 1   
    30    16    40 1   
    31    16    41 1   
    32    17    18 1   
    33    18    19 2   
    34    19    20 1   
    35    20    21 1   
    36    20    22 1   
    37    20    42 1   
    38    21    43 1   
    39    21    44 1   
    40    21    45 1   
    41    22    23 1   
    42    22    46 1   
    43    22    47 1   
    44    23    24 1   
    45    24    25 ar  
    46    24    30 ar  
    47    25    26 ar  
    48    25    48 1   
    49    26    27 ar  
    50    26    49 1   
    51    27    28 1   
    52    27    29 ar  
    53    29    30 ar  
    54    29    50 1   
    55    30    51 1   
@<TRIPOS>SUBSTRUCTURE
     1 559         1 TEMP              0 ****  ****    0 ROOT
