@<TRIPOS>MOLECULE
559
   51    55     1     0     0
SMALL
No Charge or Current Charge


@<TRIPOS>ATOM
      1 CAU         -4.4980    -0.0350    -1.3110 ca         1 559      -0.018000
      2 CAT         -5.7040    -0.7380    -1.1830 ca         1 559      -0.234000
      3 CAS         -5.9480    -1.4260     0.0050 ca         1 559       0.610900
      4 NBA         -7.0540    -2.1340     0.2350 nv         1 559      -1.058900
      5 NAR         -5.1220    -1.4790     1.0380 nb         1 559      -0.746000
      6 CAQ         -3.9560    -0.8020     0.9180 ca         1 559       0.406900
      7 CAO         -3.5790    -0.0560    -0.2320 cp         1 559      -0.162000
      8 CAM         -2.2730     0.6720    -0.2990 cp         1 559       0.009000
      9 CAN         -1.1220     0.1730     0.3550 ca         1 559      -0.123000
     10 CAC          0.1150     0.8420     0.3080 ca         1 559       0.284000
     11 CAL         -2.1490     1.8860    -1.0130 ca         1 559      -0.106000
     12 CAK         -0.9240     2.5670    -1.0760 ca         1 559      -0.100000
     13 CAB          0.2190     2.0500    -0.4360 ca         1 559      -0.009200
     14 NAA          1.4210     2.7640    -0.4980 na         1 559      -0.264800
     15 CAJ          2.0450     3.2420    -1.6210 cc         1 559       0.403800
     16 CBC          1.5710     3.1210    -3.0420 c3         1 559      -0.122400
     17 NAI          3.1830     3.8050    -1.2350 nd         1 559      -0.360000
     18 NAH          3.3030     3.6470     0.1370 nd         1 559      -0.357000
     19 CAG          2.2370     2.9890     0.5710 cc         1 559       0.405800
     20 CAF          1.9750     2.5260     1.9760 c3         1 559      -0.101000
     21 CBB          0.7190     3.1730     2.6190 c3         1 559      -0.092100
     22 CAE          1.9760     0.9820     2.0340 c3         1 559       0.231800
     23 NAD          1.2240     0.2470     0.9740 nh         1 559      -0.850200
     24 CAP          1.5920    -1.0920     0.6770 ca         1 559       0.312000
     25 CAV          2.1380    -1.9410     1.6650 ca         1 559      -0.153000
     26 CAW          2.4960    -3.2660     1.3560 ca         1 559      -0.071500
     27 CAX          2.3140    -3.7570     0.0540 ca         1 559       0.087000
     28 ClB          2.7610    -5.4130    -0.3330 cl         1 559      -0.206000
     29 CAY          1.7740    -2.9250    -0.9380 ca         1 559      -0.071500
     30 CAZ          1.4160    -1.6010    -0.6270 ca         1 559      -0.153000
     31 H1          -4.2750     0.5020    -2.2300 ha         1 559       0.117000
     32 H2          -6.4310    -0.7480    -1.9890 ha         1 559       0.124000
     33 H3          -7.5760    -2.4550    -0.5730 hn         1 559       0.479500
     34 H4          -7.0020    -2.7700     1.0220 hn         1 559       0.479500
     35 H5          -3.2980    -0.8480     1.7860 h4         1 559       0.018100
     36 H6          -1.1820    -0.7600     0.9060 ha         1 559       0.131000
     37 H7          -3.0150     2.3180    -1.5080 ha         1 559       0.123000
     38 H8          -0.8740     3.5110    -1.6140 ha         1 559       0.130000
     39 H9           0.8760     3.9300    -3.2900 hc         1 559       0.059033
     40 H10          2.4150     3.1750    -3.7390 hc         1 559       0.059033
     41 H11          1.0620     2.1640    -3.2080 hc         1 559       0.059033
     42 H12          2.8230     2.8520     2.5890 hc         1 559       0.087700
     43 H13         -0.2060     2.8700     2.1160 hc         1 559       0.045367
     44 H14          0.6370     2.8850     3.6740 hc         1 559       0.045367
     45 H15          0.7870     4.2670     2.5730 hc         1 559       0.045367
     46 H16          3.0310     0.6770     1.9720 h1         1 559       0.051200
     47 H17          1.6140     0.6730     3.0250 h1         1 559       0.051200
     48 H18          2.2740    -1.5870     2.6820 ha         1 559       0.121500
     49 H19          2.9120    -3.9120     2.1260 ha         1 559       0.128500
     50 H20          1.6350    -3.3050    -1.9480 ha         1 559       0.128500
     51 H21          1.0100    -0.9670    -1.4090 ha         1 559       0.121500
@<TRIPOS>BOND
     1     1     2 ar  
     2     1     7 ar  
     3     1    31 1   
     4     2     3 ar  
     5     2    32 1   
     6     3     4 1   
     7     3     5 ar  
     8     4    33 1   
     9     4    34 1   
    10     5     6 ar  
    11     6     7 ar  
    12     6    35 1   
    13     7     8 1   
    14     8     9 ar  
    15     8    11 ar  
    16     9    10 ar  
    17     9    36 1   
    18    10    13 ar  
    19    10    23 1   
    20    11    12 ar  
    21    11    37 1   
    22    12    13 ar  
    23    12    38 1   
    24    13    14 1   
    25    14    15 1   
    26    14    19 1   
    27    15    16 1   
    28    15    17 2   
    29    16    39 1   
    30    16    40 1   
    31    16    41 1   
    32    17    18 1   
    33    18    19 2   
    34    19    20 1   
    35    20    21 1   
    36    20    22 1   
    37    20    42 1   
    38    21    43 1   
    39    21    44 1   
    40    21    45 1   
    41    22    23 1   
    42    22    46 1   
    43    22    47 1   
    44    23    24 1   
    45    24    25 ar  
    46    24    30 ar  
    47    25    26 ar  
    48    25    48 1   
    49    26    27 ar  
    50    26    49 1   
    51    27    28 1   
    52    27    29 ar  
    53    29    30 ar  
    54    29    50 1   
    55    30    51 1   
@<TRIPOS>SUBSTRUCTURE
     1 559         1 TEMP              0 ****  ****    0 ROOT
