@<TRIPOS>MOLECULE
55A
   83    85     1     0     0
SMALL
No Charge or Current Charge


@<TRIPOS>ATOM
      1 C27          4.6920    -1.7100     1.6440 c          1 55A       0.621100
      2 O27          3.6630    -2.3090     1.9160 o          1 55A      -0.611100
      3 C28          5.9460    -1.8260     2.4980 c3         1 55A      -0.184100
      4 N27          4.8230    -0.8810     0.5490 ns         1 55A      -0.484900
      5 C22          3.7680    -0.5750    -0.4510 c3         1 55A       0.041700
      6 C21          2.6660     0.3610     0.1440 c          1 55A       0.581100
      7 O22          2.6710     0.7620     1.3020 o          1 55A      -0.581100
      8 C23          3.1760    -1.8390    -1.1480 c3         1 55A      -0.073400
      9 C25          4.2130    -2.8560    -1.7040 c3         1 55A      -0.055700
     10 C24          3.5060    -4.1080    -2.2690 c3         1 55A      -0.089600
     11 C26          5.1510    -2.2300    -2.7620 c3         1 55A      -0.089600
     12 N11         -3.3460     0.8830    -0.6990 n3         1 55A      -0.788500
     13 C12         -4.2920     1.8600    -1.3000 c3         1 55A       0.241800
     14 C13         -5.1970     2.7050    -0.3470 c3         1 55A      -0.093700
     15 C14         -4.4000     3.5830     0.6550 c3         1 55A      -0.089100
     16 C15         -6.1960     3.5490    -1.1910 c3         1 55A      -0.067400
     17 C17         -0.8030     0.8040    -0.7330 c3         1 55A       0.133300
     18 C18         -7.3020     4.2620    -0.3820 c3         1 55A      -0.088100
     19 O18         -1.0030     0.6290    -2.1460 oh         1 55A      -0.647000
     20 C19          0.5160     1.5730    -0.4280 c3         1 55A       0.078700
     21 N20          1.6670     0.7160    -0.7420 ns         1 55A      -0.503900
     22 C32          0.6560     2.9540    -1.1270 c3         1 55A      -0.052100
     23 C33          3.0390     3.6220    -1.7340 ca         1 55A      -0.100500
     24 C34          4.2620     4.2430    -1.4280 ca         1 55A      -0.107500
     25 C35          4.4330     4.8900    -0.1920 ca         1 55A      -0.106000
     26 C36          3.3800     4.9130     0.7380 ca         1 55A      -0.107500
     27 C37          2.1570     4.2910     0.4320 ca         1 55A      -0.100500
     28 C38          1.9790     3.6420    -0.8050 ca         1 55A      -0.080300
     29 C1           1.0280    -4.0390     1.7540 cc         1 55A       0.404100
     30 N1           0.5330    -4.2380     0.5200 nd         1 55A      -0.553100
     31 S1           0.2220    -2.8620     2.8130 ss         1 55A       0.120800
     32 C2          -0.5590    -3.3910     0.3770 ca         1 55A       0.132400
     33 C3          -0.8770    -2.6070     1.4670 ca         1 55A      -0.240000
     34 C4          -1.9560    -1.7090     1.4520 ca         1 55A       0.031000
     35 C5          -2.7200    -1.5990     0.2690 ca         1 55A      -0.284500
     36 C6          -2.4020    -2.4000    -0.8530 ca         1 55A      -0.029000
     37 C7          -1.3210    -3.3010    -0.7970 ca         1 55A      -0.076000
     38 S8          -4.0600    -0.4050     0.1700 sy         1 55A       1.186600
     39 O9          -5.0770    -0.9700    -0.7230 o          1 55A      -0.544000
     40 O10         -4.3900     0.1010     1.5060 o          1 55A      -0.544000
     41 H28          6.2600    -0.8230     2.8090 hc         1 55A       0.061033
     42 H28A         5.8110    -2.4920     3.3570 hc         1 55A       0.061033
     43 H28B         6.7810    -2.1460     1.8640 hc         1 55A       0.061033
     44 HN27         5.7240    -0.4300     0.4410 hn         1 55A       0.309500
     45 H22          4.2490     0.0240    -1.2350 h1         1 55A       0.056700
     46 H23          2.5190    -2.3550    -0.4380 hc         1 55A       0.059200
     47 H23A         2.5290    -1.5230    -1.9760 hc         1 55A       0.059200
     48 H25          4.8390    -3.1990    -0.8700 hc         1 55A       0.057700
     49 H24          2.8590    -3.8440    -3.1150 hc         1 55A       0.033200
     50 H24A         4.2400    -4.8460    -2.6150 hc         1 55A       0.033200
     51 H24B         2.8860    -4.5850    -1.5000 hc         1 55A       0.033200
     52 H26          5.7470    -1.4160    -2.3320 hc         1 55A       0.033200
     53 H26A         5.8500    -2.9800    -3.1510 hc         1 55A       0.033200
     54 H26B         4.5770    -1.8280    -3.6060 hc         1 55A       0.033200
     55 H12         -3.7270     2.5600    -1.9320 h1         1 55A       0.058200
     56 H12A        -4.9550     1.3190    -1.9890 h1         1 55A       0.058200
     57 H13         -5.8030     2.0060     0.2420 hc         1 55A       0.069700
     58 H14         -3.7400     4.2810     0.1260 hc         1 55A       0.035367
     59 H14A        -5.0700     4.1660     1.2960 hc         1 55A       0.035367
     60 H14B        -3.7930     2.9660     1.3250 hc         1 55A       0.035367
     61 H15         -5.6420     4.2970    -1.7730 hc         1 55A       0.037700
     62 H15A        -6.6880     2.8920    -1.9190 hc         1 55A       0.037700
     63 H16         -2.0400     2.5240    -0.3640 h1         1 55A       0.061700
     64 H16A        -2.0590     1.3660     0.9550 h1         1 55A       0.061700
     65 H17         -0.6910    -0.1800    -0.2650 h1         1 55A       0.098700
     66 H18         -6.8900     5.0610     0.2430 hc         1 55A       0.035033
     67 H18A        -8.0330     4.7170    -1.0620 hc         1 55A       0.035033
     68 H18B        -7.8340     3.5510     0.2610 hc         1 55A       0.035033
     69 HO18        -1.9820     0.5530    -2.2270 ho         1 55A       0.436000
     70 H19          0.5200     1.7630     0.6540 h1         1 55A       0.089700
     71 HN20         1.7310     0.3430    -1.6810 hn         1 55A       0.319500
     72 H32          0.5580     2.8240    -2.2110 hc         1 55A       0.049200
     73 H32A        -0.1710     3.6060    -0.8250 hc         1 55A       0.049200
     74 H33          2.9170     3.1200    -2.6910 ha         1 55A       0.108500
     75 H34          5.0770     4.2230    -2.1480 ha         1 55A       0.112500
     76 H35          5.3800     5.3700     0.0450 ha         1 55A       0.113000
     77 H36          3.5110     5.4120     1.6960 ha         1 55A       0.112500
     78 H37          1.3480     4.3100     1.1590 ha         1 55A       0.108500
     79 H4          -2.1760    -1.0990     2.3270 ha         1 55A       0.146000
     80 H6          -2.9800    -2.3160    -1.7720 ha         1 55A       0.136000
     81 H7          -1.0710    -3.9130    -1.6590 ha         1 55A       0.135000
     82 C16         -2.0850     1.4510    -0.1400 c3         1 55A       0.191800
     83 H1           1.8920    -4.5620     2.1450 h5         1 55A       0.074800
@<TRIPOS>BOND
     1     1     2 2   
     2     1     3 1   
     3     1     4 1   
     4     3    41 1   
     5     3    42 1   
     6     3    43 1   
     7     4     5 1   
     8     4    44 1   
     9     5     6 1   
    10     5     8 1   
    11     5    45 1   
    12     6     7 2   
    13     6    21 1   
    14     8     9 1   
    15     8    46 1   
    16     8    47 1   
    17     9    10 1   
    18     9    11 1   
    19     9    48 1   
    20    10    49 1   
    21    10    50 1   
    22    10    51 1   
    23    11    52 1   
    24    11    53 1   
    25    11    54 1   
    26    12    13 1   
    27    12    38 1   
    28    12    82 1   
    29    13    14 1   
    30    13    55 1   
    31    13    56 1   
    32    14    15 1   
    33    14    16 1   
    34    14    57 1   
    35    15    58 1   
    36    15    59 1   
    37    15    60 1   
    38    16    18 1   
    39    16    61 1   
    40    16    62 1   
    41    17    19 1   
    42    17    20 1   
    43    17    65 1   
    44    17    82 1   
    45    18    66 1   
    46    18    67 1   
    47    18    68 1   
    48    19    69 1   
    49    20    21 1   
    50    20    22 1   
    51    20    70 1   
    52    21    71 1   
    53    22    28 1   
    54    22    72 1   
    55    22    73 1   
    56    23    24 ar  
    57    23    28 ar  
    58    23    74 1   
    59    24    25 ar  
    60    24    75 1   
    61    25    26 ar  
    62    25    76 1   
    63    26    27 ar  
    64    26    77 1   
    65    27    28 ar  
    66    27    78 1   
    67    29    30 2   
    68    29    31 1   
    69    29    83 1   
    70    30    32 1   
    71    31    33 1   
    72    32    33 ar  
    73    32    37 ar  
    74    33    34 ar  
    75    34    35 ar  
    76    34    79 1   
    77    35    36 ar  
    78    35    38 1   
    79    36    37 ar  
    80    36    80 1   
    81    37    81 1   
    82    38    39 2   
    83    38    40 2   
    84    63    82 1   
    85    64    82 1   
@<TRIPOS>SUBSTRUCTURE
     1 55A         1 TEMP              0 ****  ****    0 ROOT
