@<TRIPOS>MOLECULE
55A
   83    85     1     0     0
SMALL
bcc


@<TRIPOS>ATOM
      1 C27          4.9230    -1.5480     1.1200 c          1 55A       0.688100
      2 O27          4.1110    -2.3890     1.4690 o          1 55A      -0.611100
      3 C28          6.1840    -1.2920     1.9130 c3         1 55A      -0.184100
      4 N27          4.7940    -0.7800     0.0180 ns         1 55A      -0.551900
      5 C22          3.5930    -0.6120    -0.7600 c3         1 55A       0.041700
      6 C21          2.5600     0.2160     0.0150 c          1 55A       0.648100
      7 O22          2.6660     0.4430     1.2040 o          1 55A      -0.581100
      8 C23          2.9770    -1.9130    -1.2900 c3         1 55A      -0.073400
      9 C25          3.9460    -2.8340    -2.0280 c3         1 55A      -0.055700
     10 C24          3.1990    -4.0760    -2.5020 c3         1 55A      -0.089600
     11 C26          4.6330    -2.1370    -3.1980 c3         1 55A      -0.089600
     12 N11         -3.2900     1.0580    -0.1260 n3         1 55A      -0.788500
     13 C12         -4.2240     1.5060    -1.1580 c3         1 55A       0.241800
     14 C13         -5.3060     2.4840    -0.6950 c3         1 55A      -0.093700
     15 C14         -4.7240     3.6710     0.0650 c3         1 55A      -0.089100
     16 C15         -6.1080     2.9210    -1.9230 c3         1 55A      -0.067400
     17 C17         -0.8660     1.0190    -0.7110 c3         1 55A       0.110100
     18 C18         -7.3480     3.7450    -1.6030 c3         1 55A      -0.088100
     19 O18         -1.0300     1.0480    -2.1100 oh         1 55A      -0.584800
     20 C19          0.5030     1.5410    -0.2590 c3         1 55A       0.078700
     21 N20          1.5380     0.6610    -0.7460 ns         1 55A      -0.570900
     22 C32          0.7790     2.9970    -0.6750 c3         1 55A      -0.052100
     23 C33          3.2450     3.3470    -1.0240 ca         1 55A      -0.118500
     24 C34          4.5080     3.6870    -0.5600 ca         1 55A      -0.125500
     25 C35          4.6710     4.1490     0.7380 ca         1 55A      -0.124000
     26 C36          3.5620     4.2710     1.5660 ca         1 55A      -0.125500
     27 C37          2.3030     3.9210     1.1000 ca         1 55A      -0.118500
     28 C38          2.1290     3.4510    -0.1990 ca         1 55A      -0.080300
     29 C1           1.2800    -3.7660     1.5450 cc         1 55A       0.404100
     30 N1           0.3970    -4.0670     0.6590 nd         1 55A      -0.553100
     31 S1           0.9510    -2.3920     2.5410 ss         1 55A      -0.006100
     32 C2          -0.6510    -3.1830     0.7080 ca         1 55A       0.132400
     33 C3          -0.5400    -2.1890     1.6960 ca         1 55A      -0.113100
     34 C4          -1.5230    -1.2240     1.8750 ca         1 55A       0.013000
     35 C5          -2.6010    -1.2600     1.0120 ca         1 55A      -0.284500
     36 C6          -2.7330    -2.2360     0.0140 ca         1 55A      -0.047000
     37 C7          -1.7660    -3.2040    -0.1330 ca         1 55A      -0.094000
     38 S8          -3.7940     0.0490     1.0630 sy         1 55A       1.328200
     39 O9          -5.0870    -0.4800     0.6560 o          1 55A      -0.614800
     40 O10         -3.6750     0.6870     2.3680 o          1 55A      -0.614800
     41 H28          5.9310    -0.7030     2.7950 hc         1 55A       0.061033
     42 H28A         6.6050    -2.2350     2.2570 hc         1 55A       0.061033
     43 H28B         6.9470    -0.7490     1.3570 hc         1 55A       0.061033
     44 HN27         5.4900    -0.0650    -0.1130 hn         1 55A       0.309500
     45 H22          3.8920    -0.0140    -1.6270 h1         1 55A       0.056700
     46 H23          2.5080    -2.4600    -0.4740 hc         1 55A       0.059200
     47 H23A         2.1700    -1.6450    -1.9810 hc         1 55A       0.059200
     48 H25          4.7200    -3.1580    -1.3260 hc         1 55A       0.057700
     49 H24          2.4270    -3.8180    -3.2310 hc         1 55A       0.033200
     50 H24A         3.8780    -4.7850    -2.9790 hc         1 55A       0.033200
     51 H24B         2.7090    -4.5890    -1.6720 hc         1 55A       0.033200
     52 H26          5.2850    -1.3270    -2.8660 hc         1 55A       0.033200
     53 H26A         5.2500    -2.8390    -3.7600 hc         1 55A       0.033200
     54 H26B         3.9020    -1.7120    -3.8910 hc         1 55A       0.033200
     55 H12         -3.6080     1.9810    -1.9230 h1         1 55A       0.058200
     56 H12A        -4.6840     0.6400    -1.6360 h1         1 55A       0.058200
     57 H13         -5.9870     1.9480    -0.0240 hc         1 55A       0.069700
     58 H14         -4.0310     4.2410    -0.5600 hc         1 55A       0.035367
     59 H14A        -5.5090     4.3520     0.3920 hc         1 55A       0.035367
     60 H14B        -4.1890     3.3540     0.9620 hc         1 55A       0.035367
     61 H15         -5.4520     3.4880    -2.5920 hc         1 55A       0.037700
     62 H15A        -6.4130     2.0300    -2.4810 hc         1 55A       0.037700
     63 H16         -2.1130     2.7530    -0.3030 h1         1 55A       0.061700
     64 H16A        -1.7470     1.7950     1.0950 h1         1 55A       0.061700
     65 H17         -0.8880    -0.0410    -0.4480 h1         1 55A       0.098700
     66 H18         -7.1000     4.6960    -1.1320 hc         1 55A       0.035033
     67 H18A        -7.9070     3.9710    -2.5120 hc         1 55A       0.035033
     68 H18B        -8.0170     3.2050    -0.9290 hc         1 55A       0.035033
     69 HO18        -1.0500     1.9610    -2.4140 ho         1 55A       0.397000
     70 H19          0.5310     1.4840     0.8310 h1         1 55A       0.089700
     71 HN20         1.5620     0.4880    -1.7390 hn         1 55A       0.319500
     72 H32          0.7330     3.0880    -1.7640 hc         1 55A       0.049200
     73 H32A        -0.0010     3.6430    -0.2650 hc         1 55A       0.049200
     74 H33          3.1250     2.9950    -2.0430 ha         1 55A       0.126500
     75 H34          5.3650     3.5930    -1.2160 ha         1 55A       0.130500
     76 H35          5.6550     4.4160     1.1030 ha         1 55A       0.131000
     77 H36          3.6790     4.6380     2.5780 ha         1 55A       0.130500
     78 H37          1.4440     4.0090     1.7550 ha         1 55A       0.126500
     79 H4          -1.4320    -0.4690     2.6440 ha         1 55A       0.164000
     80 H6          -3.5910    -2.2300    -0.6450 ha         1 55A       0.154000
     81 H7          -1.8560    -3.9670    -0.8940 ha         1 55A       0.153000
     82 C16         -2.0010     1.7200     0.0350 c3         1 55A       0.191800
     83 H1           2.2000    -4.3170     1.6810 h5         1 55A       0.074800
@<TRIPOS>BOND
     1     1     2 2   
     2     1     3 1   
     3     1     4 1   
     4     3    41 1   
     5     3    42 1   
     6     3    43 1   
     7     4     5 1   
     8     4    44 1   
     9     5     6 1   
    10     5     8 1   
    11     5    45 1   
    12     6     7 2   
    13     6    21 1   
    14     8     9 1   
    15     8    46 1   
    16     8    47 1   
    17     9    10 1   
    18     9    11 1   
    19     9    48 1   
    20    10    49 1   
    21    10    50 1   
    22    10    51 1   
    23    11    52 1   
    24    11    53 1   
    25    11    54 1   
    26    12    13 1   
    27    12    38 1   
    28    12    82 1   
    29    13    14 1   
    30    13    55 1   
    31    13    56 1   
    32    14    15 1   
    33    14    16 1   
    34    14    57 1   
    35    15    58 1   
    36    15    59 1   
    37    15    60 1   
    38    16    18 1   
    39    16    61 1   
    40    16    62 1   
    41    17    19 1   
    42    17    20 1   
    43    17    65 1   
    44    17    82 1   
    45    18    66 1   
    46    18    67 1   
    47    18    68 1   
    48    19    69 1   
    49    20    21 1   
    50    20    22 1   
    51    20    70 1   
    52    21    71 1   
    53    22    28 1   
    54    22    72 1   
    55    22    73 1   
    56    23    24 ar  
    57    23    28 ar  
    58    23    74 1   
    59    24    25 ar  
    60    24    75 1   
    61    25    26 ar  
    62    25    76 1   
    63    26    27 ar  
    64    26    77 1   
    65    27    28 ar  
    66    27    78 1   
    67    29    30 2   
    68    29    31 1   
    69    29    83 1   
    70    30    32 1   
    71    31    33 1   
    72    32    33 ar  
    73    32    37 ar  
    74    33    34 ar  
    75    34    35 ar  
    76    34    79 1   
    77    35    36 ar  
    78    35    38 1   
    79    36    37 ar  
    80    36    80 1   
    81    37    81 1   
    82    38    39 2   
    83    38    40 2   
    84    63    82 1   
    85    64    82 1   
@<TRIPOS>SUBSTRUCTURE
     1 55A         1 TEMP              0 ****  ****    0 ROOT
