@<TRIPOS>MOLECULE
55B
   29    29     1     0     0
SMALL
No Charge or Current Charge


@<TRIPOS>ATOM
      1 CAA          2.7070     3.2630    -0.0610 c3         1 55B       0.152400
      2 OAJ          2.8730     1.8330    -0.0300 os         1 55B      -0.343100
      3 CAN          1.7980     0.9580     0.0060 ca         1 55B       0.102100
      4 CAG          0.4620     1.4180     0.0140 ca         1 55B      -0.177500
      5 CAM          2.0530    -0.4320     0.0350 ca         1 55B       0.087100
      6 OAD          3.3390    -0.9150     0.0270 oh         1 55B      -0.514100
      7 CAO          0.9800    -1.3480     0.0690 ca         1 55B       0.102100
      8 OAK          1.2840    -2.7000     0.0900 os         1 55B      -0.343100
      9 CAB          0.2670    -3.7180     0.1260 c3         1 55B       0.152400
     10 CAH         -0.3490    -0.8730     0.0770 ca         1 55B      -0.177500
     11 CAL         -0.6130     0.5110     0.0560 ca         1 55B      -0.020800
     12 CAF         -2.0070     1.0470     0.0610 ce         1 55B      -0.145200
     13 CAE         -3.1220     0.3690     0.4210 c2         1 55B      -0.211200
     14 CAI         -4.5220     0.9300     0.4320 c3         1 55B       0.196800
     15 OAC         -5.1030     0.7700    -0.8620 oh         1 55B      -0.655000
     16 H1           3.6850     3.7580    -0.0870 h1         1 55B       0.041033
     17 H2           2.1470     3.5710    -0.9530 h1         1 55B       0.041033
     18 H3           2.1730     3.6140     0.8310 h1         1 55B       0.041033
     19 H4           0.2420     2.4810    -0.0060 ha         1 55B       0.120000
     20 H5           3.2750    -1.8950     0.0490 ho         1 55B       0.475000
     21 H6          -0.3530    -3.6180     1.0260 h1         1 55B       0.041033
     22 H7          -0.3800    -3.6560    -0.7580 h1         1 55B       0.041033
     23 H8           0.7280    -4.7140     0.1400 h1         1 55B       0.041033
     24 H9          -1.1780    -1.5720     0.0880 ha         1 55B       0.120000
     25 H10         -2.0940     2.0900    -0.2470 ha         1 55B       0.168000
     26 H12         -3.0740    -0.6670     0.7540 ha         1 55B       0.178000
     27 H14         -5.1230     0.4040     1.1880 h1         1 55B       0.023200
     28 H15         -4.4930     1.9930     0.7100 h1         1 55B       0.023200
     29 H16         -6.0070     1.1510    -0.8140 ho         1 55B       0.441000
@<TRIPOS>BOND
     1     1     2 1   
     2     1    16 1   
     3     1    17 1   
     4     1    18 1   
     5     2     3 1   
     6     3     4 ar  
     7     3     5 ar  
     8     4    11 ar  
     9     4    19 1   
    10     5     6 1   
    11     5     7 ar  
    12     6    20 1   
    13     7     8 1   
    14     7    10 ar  
    15     8     9 1   
    16     9    21 1   
    17     9    22 1   
    18     9    23 1   
    19    10    11 ar  
    20    10    24 1   
    21    11    12 1   
    22    12    13 2   
    23    12    25 1   
    24    13    14 1   
    25    13    26 1   
    26    14    15 1   
    27    14    27 1   
    28    14    28 1   
    29    15    29 1   
@<TRIPOS>SUBSTRUCTURE
     1 55B         1 TEMP              0 ****  ****    0 ROOT
