@<TRIPOS>MOLECULE
55B
   29    29     1     0     0
SMALL
bcc


@<TRIPOS>ATOM
      1 CAA          2.6560     3.1310    -0.0640 c3         1 55B       0.129200
      2 OAJ          2.8450     1.7300    -0.0580 os         1 55B      -0.319900
      3 CAN          1.7560     0.9400     0.0100 ca         1 55B       0.102100
      4 CAG          0.4440     1.3960     0.0680 ca         1 55B      -0.195500
      5 CAM          2.0140    -0.4310     0.0220 ca         1 55B       0.087100
      6 OAD          3.2960    -0.8460    -0.0340 oh         1 55B      -0.475100
      7 CAO          0.9430    -1.3290     0.0910 ca         1 55B       0.102100
      8 OAK          1.3140    -2.6270     0.0970 os         1 55B      -0.319900
      9 CAB          0.3100    -3.6230     0.1390 c3         1 55B       0.129200
     10 CAH         -0.3640    -0.8710     0.1510 ca         1 55B      -0.195500
     11 CAL         -0.6240     0.5010     0.1380 ca         1 55B      -0.020800
     12 CAF         -1.9810     1.0480     0.1910 ce         1 55B      -0.095200
     13 CAE         -3.1280     0.3680     0.2160 c2         1 55B      -0.161200
     14 CAI         -4.4650     1.0240     0.3120 c3         1 55B       0.173600
     15 OAC         -5.2530     0.6240    -0.7930 oh         1 55B      -0.592800
     16 H1           3.6470     3.5760    -0.1070 h1         1 55B       0.041033
     17 H2           2.0840     3.4620    -0.9350 h1         1 55B       0.041033
     18 H3           2.1510     3.4800     0.8410 h1         1 55B       0.041033
     19 H4           0.2340     2.4580     0.0590 ha         1 55B       0.138000
     20 H5           3.3260    -1.8100    -0.0130 ho         1 55B       0.436000
     21 H6          -0.2790    -3.5670     1.0570 h1         1 55B       0.041033
     22 H7          -0.3620    -3.5570    -0.7200 h1         1 55B       0.041033
     23 H8           0.8240    -4.5800     0.1110 h1         1 55B       0.041033
     24 H9          -1.1820    -1.5740     0.2090 ha         1 55B       0.138000
     25 H10         -2.0340     2.1340     0.2090 ha         1 55B       0.118000
     26 H12         -3.1350    -0.7190     0.1920 ha         1 55B       0.128000
     27 H14         -4.9410     0.7260     1.2560 h1         1 55B       0.023200
     28 H15         -4.3400     2.1140     0.3510 h1         1 55B       0.023200
     29 H16         -6.1630     0.8770    -0.6150 ho         1 55B       0.402000
@<TRIPOS>BOND
     1     1     2 1   
     2     1    16 1   
     3     1    17 1   
     4     1    18 1   
     5     2     3 1   
     6     3     4 ar  
     7     3     5 ar  
     8     4    11 ar  
     9     4    19 1   
    10     5     6 1   
    11     5     7 ar  
    12     6    20 1   
    13     7     8 1   
    14     7    10 ar  
    15     8     9 1   
    16     9    21 1   
    17     9    22 1   
    18     9    23 1   
    19    10    11 ar  
    20    10    24 1   
    21    11    12 1   
    22    12    13 2   
    23    12    25 1   
    24    13    14 1   
    25    13    26 1   
    26    14    15 1   
    27    14    27 1   
    28    14    28 1   
    29    15    29 1   
@<TRIPOS>SUBSTRUCTURE
     1 55B         1 TEMP              0 ****  ****    0 ROOT
