@<TRIPOS>MOLECULE
55C
   41    43     1     0     0
SMALL
No Charge or Current Charge


@<TRIPOS>ATOM
      1 C5          -4.9220     1.0850     0.0090 ca         1 55C      -0.037000
      2 C3          -7.2730     1.1100     0.6550 ca         1 55C      -0.119000
      3 C2          -7.2230    -0.2740     0.8930 ca         1 55C      -0.119000
      4 C4          -6.1240     1.7900     0.2140 ca         1 55C      -0.095000
      5 N1           2.3680    -0.3750     0.0300 ns         1 55C      -0.160000
      6 O21          1.5200    -2.2970    -0.9170 o          1 55C      -0.645100
      7 C13          1.3420    -1.1900    -0.4240 c          1 55C       0.602300
      8 C15          3.7780    -0.5460     0.1240 ca         1 55C       0.004000
      9 C17          4.3830    -1.8180     0.0040 ca         1 55C      -0.177000
     10 C16          5.7740    -1.9660     0.0990 ca         1 55C      -0.106000
     11 C20          6.5820    -0.8440     0.3180 ca         1 55C      -0.177000
     12 C19          5.9990     0.4250     0.4500 ca         1 55C      -0.063000
     13 C18          4.5970     0.5940     0.3620 ca         1 55C      -0.198600
     14 C21          4.0240     1.9930     0.5120 c          1 55C       0.723600
     15 O22          2.9180     2.1280     1.0160 o          1 55C      -0.709000
     16 O23          4.7040     2.9370     0.1370 o          1 55C      -0.709000
     17 C12         -0.0120    -0.5690    -0.2560 ce         1 55C      -0.252200
     18 C14         -1.4110    -2.3990    -1.3470 c3         1 55C      -0.050900
     19 C10         -2.5100    -0.3410    -0.4030 ca         1 55C      -0.038800
     20 C9          -2.5710     1.0500    -0.6300 ca         1 55C      -0.086000
     21 C8          -3.7680     1.7580    -0.4280 ca         1 55C      -0.106000
     22 C6          -4.8730    -0.3050     0.2470 ca         1 55C      -0.037000
     23 C7          -3.6710    -1.0100     0.0430 ca         1 55C      -0.100000
     24 C1          -6.0260    -0.9810     0.6900 ca         1 55C      -0.096000
     25 H1          -8.2000     1.6570     0.8120 ha         1 55C       0.104000
     26 H2          -8.1130    -0.7980     1.2350 ha         1 55C       0.104000
     27 H3          -6.1690     2.8610     0.0320 ha         1 55C       0.109000
     28 H4           2.0600     0.5260     0.3770 hn         1 55C       0.232000
     29 H5           3.7860    -2.7110    -0.1520 ha         1 55C       0.128000
     30 H6           6.2250    -2.9510     0.0050 ha         1 55C       0.085000
     31 H7           7.6610    -0.9570     0.3920 ha         1 55C       0.089000
     32 H8           6.6430     1.2850     0.6280 ha         1 55C       0.127000
     33 H10          0.0010     0.4010     0.2360 ha         1 55C       0.199000
     34 H11         -1.2430    -3.2490    -0.6760 hc         1 55C       0.046700
     35 H12         -2.4110    -2.5120    -1.7820 hc         1 55C       0.046700
     36 H13         -0.7110    -2.4860    -2.1860 hc         1 55C       0.046700
     37 H14         -1.6920     1.5860    -0.9790 ha         1 55C       0.132000
     38 H15         -3.7960     2.8290    -0.6140 ha         1 55C       0.113000
     39 H16         -3.6390    -2.0780     0.2450 ha         1 55C       0.113000
     40 H17         -5.9960    -2.0520     0.8770 ha         1 55C       0.108000
     41 C11         -1.2370    -1.0720    -0.6110 cf         1 55C      -0.030400
@<TRIPOS>BOND
     1     1     4 ar  
     2     1    21 ar  
     3     1    22 ar  
     4     2     3 ar  
     5     2     4 ar  
     6     2    25 1   
     7     3    24 ar  
     8     3    26 1   
     9     4    27 1   
    10     5     7 1   
    11     5     8 1   
    12     5    28 1   
    13     6     7 2   
    14     7    17 1   
    15     8     9 ar  
    16     8    13 ar  
    17     9    10 ar  
    18     9    29 1   
    19    10    11 ar  
    20    10    30 1   
    21    11    12 ar  
    22    11    31 1   
    23    12    13 ar  
    24    12    32 1   
    25    13    14 1   
    26    14    15 1   
    27    14    16 1   
    28    17    33 1   
    29    17    41 2   
    30    18    34 1   
    31    18    35 1   
    32    18    36 1   
    33    18    41 1   
    34    19    20 ar  
    35    19    23 ar  
    36    19    41 1   
    37    20    21 ar  
    38    20    37 1   
    39    21    38 1   
    40    22    23 ar  
    41    22    24 ar  
    42    23    39 1   
    43    24    40 1   
@<TRIPOS>SUBSTRUCTURE
     1 55C         1 TEMP              0 ****  ****    0 ROOT
