@<TRIPOS>MOLECULE
55C
   41    43     1     0     0
SMALL
abcg2


@<TRIPOS>ATOM
      1 C5          -4.7910     1.1170    -0.0000 ca         1 55C      -0.037000
      2 C3          -7.1340     1.2230     0.5810 ca         1 55C      -0.119000
      3 C2          -7.1500    -0.1740     0.7780 ca         1 55C      -0.119000
      4 C4          -5.9800     1.8540     0.1990 ca         1 55C      -0.095000
      5 N1           2.2860    -0.3720     0.0030 ns         1 55C      -0.160000
      6 O21          1.4950    -2.4420    -0.5590 o          1 55C      -0.645100
      7 C13          1.3050    -1.2650    -0.2760 c          1 55C       0.602300
      8 C15          3.6650    -0.5310     0.0350 ca         1 55C       0.004000
      9 C17          4.3100    -1.7400    -0.2540 ca         1 55C      -0.177000
     10 C16          5.6920    -1.8270    -0.2020 ca         1 55C      -0.106000
     11 C20          6.4600    -0.7210     0.1340 ca         1 55C      -0.177000
     12 C19          5.8220     0.4760     0.4170 ca         1 55C      -0.063000
     13 C18          4.4370     0.6050     0.3760 ca         1 55C      -0.198600
     14 C21          3.8360     1.9700     0.7020 c          1 55C       0.723600
     15 O22          2.5800     2.0780     0.6740 o          1 55C      -0.709000
     16 O23          4.6220     2.8860     0.9740 o          1 55C      -0.709000
     17 C12         -0.0330    -0.6420    -0.1920 ce         1 55C      -0.252200
     18 C14         -1.3520    -2.6080    -1.0650 c3         1 55C      -0.050900
     19 C10         -2.4420    -0.4150    -0.3760 ca         1 55C      -0.038800
     20 C9          -2.4450     0.9910    -0.5780 ca         1 55C      -0.086000
     21 C8          -3.5790     1.7290    -0.3990 ca         1 55C      -0.106000
     22 C6          -4.8060    -0.2870     0.1960 ca         1 55C      -0.037000
     23 C7          -3.6200    -1.0260    -0.0100 ca         1 55C      -0.100000
     24 C1          -6.0130    -0.9120     0.5900 ca         1 55C      -0.096000
     25 H1          -8.0390     1.7950     0.7340 ha         1 55C       0.104000
     26 H2          -8.0680    -0.6600     1.0810 ha         1 55C       0.104000
     27 H3          -5.9670     2.9260     0.0470 ha         1 55C       0.109000
     28 H4           2.0450     0.6080     0.2470 hn         1 55C       0.232000
     29 H5           3.7350    -2.6120    -0.5180 ha         1 55C       0.128000
     30 H6           6.1670    -2.7720    -0.4300 ha         1 55C       0.085000
     31 H7           7.5390    -0.7900     0.1750 ha         1 55C       0.089000
     32 H8           6.4090     1.3460     0.6790 ha         1 55C       0.127000
     33 H10         -0.0510     0.3670     0.2040 ha         1 55C       0.199000
     34 H11         -1.2870    -3.3390    -0.2580 hc         1 55C       0.046700
     35 H12         -2.3140    -2.7390    -1.5560 hc         1 55C       0.046700
     36 H13         -0.5710    -2.8540    -1.7780 hc         1 55C       0.046700
     37 H14         -1.5410     1.4830    -0.9110 ha         1 55C       0.132000
     38 H15         -3.5610     2.7980    -0.5730 ha         1 55C       0.113000
     39 H16         -3.6560    -2.0970     0.1490 ha         1 55C       0.113000
     40 H17         -6.0250    -1.9850     0.7400 ha         1 55C       0.108000
     41 C11         -1.2030    -1.2070    -0.5410 cf         1 55C      -0.030400
@<TRIPOS>BOND
     1     1     4 ar  
     2     1    21 ar  
     3     1    22 ar  
     4     2     3 ar  
     5     2     4 ar  
     6     2    25 1   
     7     3    24 ar  
     8     3    26 1   
     9     4    27 1   
    10     5     7 1   
    11     5     8 1   
    12     5    28 1   
    13     6     7 2   
    14     7    17 1   
    15     8     9 ar  
    16     8    13 ar  
    17     9    10 ar  
    18     9    29 1   
    19    10    11 ar  
    20    10    30 1   
    21    11    12 ar  
    22    11    31 1   
    23    12    13 ar  
    24    12    32 1   
    25    13    14 1   
    26    14    15 1   
    27    14    16 1   
    28    17    33 1   
    29    17    41 2   
    30    18    34 1   
    31    18    35 1   
    32    18    36 1   
    33    18    41 1   
    34    19    20 ar  
    35    19    23 ar  
    36    19    41 1   
    37    20    21 ar  
    38    20    37 1   
    39    21    38 1   
    40    22    23 ar  
    41    22    24 ar  
    42    23    39 1   
    43    24    40 1   
@<TRIPOS>SUBSTRUCTURE
     1 55C         1 TEMP              0 ****  ****    0 ROOT
