@<TRIPOS>MOLECULE
55D
   26    26     1     0     0
SMALL
bcc


@<TRIPOS>ATOM
      1 O2           1.8200    -1.5060    -0.0320 o          1 55D      -0.580100
      2 C6           1.6880    -0.2950    -0.0280 c          1 55D       0.667100
      3 C7           2.8300     0.6870    -0.0340 c3         1 55D      -0.152400
      4 C8           4.2030     0.0320    -0.0320 c3         1 55D      -0.065400
      5 C9           5.3160     1.0700    -0.0370 c3         1 55D      -0.092100
      6 N2           0.4520     0.2780    -0.0180 ns         1 55D      -0.451100
      7 C4          -0.7330    -0.4100    -0.0140 cc         1 55D       0.147500
      8 C1          -1.9930     0.1590    -0.0000 cd         1 55D      -0.278600
      9 C5          -2.1940     1.6180     0.0130 c          1 55D       0.722700
     10 N1          -3.4590     2.0580     0.0400 nt         1 55D      -0.661000
     11 O1          -1.2400     2.4020    -0.0000 o          1 55D      -0.662100
     12 S1          -0.8020    -2.1320    -0.0240 ss         1 55D       0.013200
     13 C3          -2.5260    -2.1010    -0.0130 cc         1 55D      -0.171100
     14 C2          -3.0150    -0.8410    -0.0010 cd         1 55D      -0.100000
     15 H1           2.7200     1.3370    -0.9080 hc         1 55D       0.067700
     16 H2           2.7220     1.3450     0.8350 hc         1 55D       0.067700
     17 H3           4.3030    -0.6100     0.8460 hc         1 55D       0.054700
     18 H4           4.3020    -0.6190    -0.9030 hc         1 55D       0.054700
     19 H5           5.2600     1.7060    -0.9220 hc         1 55D       0.034367
     20 H6           5.2580     1.7180     0.8390 hc         1 55D       0.034367
     21 H7           6.2960     0.5950    -0.0340 hc         1 55D       0.034367
     22 H8           0.3430     1.2880    -0.0160 hn         1 55D       0.371500
     23 H9          -4.2580     1.4500     0.0690 hn         1 55D       0.315500
     24 H10         -3.6390     3.0490     0.0590 hn         1 55D       0.315500
     25 H11         -3.0800    -3.0270    -0.0150 h4         1 55D       0.169000
     26 H12         -4.0760    -0.6380     0.0060 ha         1 55D       0.141000
@<TRIPOS>BOND
     1     1     2 2   
     2     2     3 1   
     3     2     6 1   
     4     3     4 1   
     5     3    15 1   
     6     3    16 1   
     7     4     5 1   
     8     4    17 1   
     9     4    18 1   
    10     5    19 1   
    11     5    20 1   
    12     5    21 1   
    13     6     7 1   
    14     6    22 1   
    15     7     8 2   
    16     7    12 1   
    17     8     9 1   
    18     8    14 1   
    19     9    10 1   
    20     9    11 2   
    21    10    23 1   
    22    10    24 1   
    23    12    13 1   
    24    13    14 2   
    25    13    25 1   
    26    14    26 1   
@<TRIPOS>SUBSTRUCTURE
     1 55D         1 TEMP              0 ****  ****    0 ROOT
