@<TRIPOS>MOLECULE
55D
   26    26     1     0     0
SMALL
No Charge or Current Charge


@<TRIPOS>ATOM
      1 O2           1.9020    -1.7090    -1.0510 o          1 55D      -0.580100
      2 C6           1.7390    -0.5260    -0.7840 c          1 55D       0.600100
      3 C7           2.8870     0.4880    -0.8580 c3         1 55D      -0.152400
      4 C8           3.8640     0.3310     0.3320 c3         1 55D      -0.065400
      5 C9           5.0320     1.3360     0.2880 c3         1 55D      -0.092100
      6 N2           0.5190     0.0100    -0.4270 ns         1 55D      -0.384100
      7 C4          -0.7140    -0.6200    -0.2870 cc         1 55D       0.002600
      8 C1          -1.8510     0.0780     0.0840 cd         1 55D      -0.278600
      9 C5          -1.8480     1.5470     0.3590 c          1 55D       0.655700
     10 N1          -3.0350     2.0740     0.7080 nt         1 55D      -0.594000
     11 O1          -0.8650     2.2690     0.2890 o          1 55D      -0.662100
     12 S1          -1.0550    -2.3400    -0.5380 ss         1 55D       0.303000
     13 C3          -2.7460    -2.0920    -0.1360 cc         1 55D      -0.298000
     14 C2          -2.9970    -0.7780     0.1630 cd         1 55D      -0.082000
     15 H1           3.4420     0.3170    -1.7880 hc         1 55D       0.067700
     16 H2           2.4890     1.5100    -0.8480 hc         1 55D       0.067700
     17 H3           3.3160     0.4610     1.2740 hc         1 55D       0.054700
     18 H4           4.2710    -0.6880     0.3390 hc         1 55D       0.054700
     19 H5           5.6210     1.2070    -0.6280 hc         1 55D       0.034367
     20 H6           4.6580     2.3670     0.3180 hc         1 55D       0.034367
     21 H7           5.6960     1.1870     1.1470 hc         1 55D       0.034367
     22 H8           0.5350     1.0090    -0.2400 hn         1 55D       0.371500
     23 H9          -3.8490     1.4840     0.7690 hn         1 55D       0.315500
     24 H10         -3.0950     3.0600     0.9070 hn         1 55D       0.315500
     25 H11         -3.4260    -2.9330    -0.1520 h4         1 55D       0.151000
     26 H12         -3.9910    -0.4350     0.4370 ha         1 55D       0.123000
@<TRIPOS>BOND
     1     1     2 2   
     2     2     3 1   
     3     2     6 1   
     4     3     4 1   
     5     3    15 1   
     6     3    16 1   
     7     4     5 1   
     8     4    17 1   
     9     4    18 1   
    10     5    19 1   
    11     5    20 1   
    12     5    21 1   
    13     6     7 1   
    14     6    22 1   
    15     7     8 2   
    16     7    12 1   
    17     8     9 1   
    18     8    14 1   
    19     9    10 1   
    20     9    11 2   
    21    10    23 1   
    22    10    24 1   
    23    12    13 1   
    24    13    14 2   
    25    13    25 1   
    26    14    26 1   
@<TRIPOS>SUBSTRUCTURE
     1 55D         1 TEMP              0 ****  ****    0 ROOT
