@<TRIPOS>MOLECULE
55E
   35    37     1     0     0
SMALL
No Charge or Current Charge


@<TRIPOS>ATOM
      1 O3           0.8770    -3.4160    -1.8290 o          1 55E      -0.468100
      2 C2           0.7660    -2.3680    -1.2210 c          1 55E       0.816900
      3 N4          -0.4320    -1.7530    -0.9480 ne         1 55E      -0.673100
      4 C5          -0.5650    -0.4730    -0.8390 cf         1 55E       0.567900
      5 C6          -1.8590     0.1510    -0.4650 ca         1 55E      -0.211900
      6 C21         -2.8920    -0.6310     0.1040 ca         1 55E      -0.003000
      7 C19         -4.1390    -0.0630     0.4370 ca         1 55E      -0.184300
      8 C20         -5.2210    -0.9430     1.0630 c3         1 55E      -0.051800
      9 C17         -4.3620     1.3050     0.1800 ca         1 55E       0.175100
     10 O18         -5.5540     1.8910     0.4850 oh         1 55E      -0.531100
     11 C16         -3.3550     2.0830    -0.4050 ca         1 55E      -0.162000
     12 C15         -2.1150     1.5150    -0.7330 ca         1 55E      -0.047000
     13 C7           0.6630     0.4160    -0.7960 c6         1 55E      -0.297000
     14 C8           1.9200    -0.4040    -0.5960 ce         1 55E       0.551900
     15 N1           1.8810    -1.6990    -0.7200 nf         1 55E      -0.662100
     16 C9           3.1530     0.2760    -0.0680 ca         1 55E      -0.166900
     17 C14          3.3450     1.6690    -0.2360 ca         1 55E      -0.067500
     18 C13          4.5120     2.2940     0.2360 ca         1 55E      -0.122000
     19 C12          5.5120     1.5400     0.8700 ca         1 55E      -0.083000
     20 C11          5.3450     0.1560     1.0270 ca         1 55E      -0.122000
     21 C10          4.1790    -0.4740     0.5570 ca         1 55E      -0.067500
     22 H21         -2.7230    -1.6890     0.3010 ha         1 55E       0.145000
     23 H20         -5.5090    -0.5740     2.0550 hc         1 55E       0.046367
     24 H20A        -6.1200    -0.9750     0.4360 hc         1 55E       0.046367
     25 H20B        -4.8810    -1.9780     1.1910 hc         1 55E       0.046367
     26 HO18        -6.1350     1.2070     0.8790 ho         1 55E       0.475000
     27 H16         -3.5380     3.1350    -0.6100 ha         1 55E       0.133000
     28 H15         -1.3610     2.1440    -1.2030 ha         1 55E       0.111000
     29 H7           0.7400     0.9500    -1.7510 hc         1 55E       0.098200
     30 H7A          0.5640     1.1590     0.0040 hc         1 55E       0.098200
     31 H14          2.5970     2.2790    -0.7360 ha         1 55E       0.126500
     32 H13          4.6440     3.3660     0.1040 ha         1 55E       0.119000
     33 H12          6.4150     2.0260     1.2330 ha         1 55E       0.117000
     34 H11          6.1210    -0.4330     1.5120 ha         1 55E       0.119000
     35 H10          4.0760    -1.5490     0.6900 ha         1 55E       0.126500
@<TRIPOS>BOND
     1     1     2 2   
     2     2     3 1   
     3     2    15 1   
     4     3     4 2   
     5     4     5 1   
     6     4    13 1   
     7     5     6 ar  
     8     5    12 ar  
     9     6     7 ar  
    10     6    22 1   
    11     7     8 1   
    12     7     9 ar  
    13     8    23 1   
    14     8    24 1   
    15     8    25 1   
    16     9    10 1   
    17     9    11 ar  
    18    10    26 1   
    19    11    12 ar  
    20    11    27 1   
    21    12    28 1   
    22    13    14 1   
    23    13    29 1   
    24    13    30 1   
    25    14    15 2   
    26    14    16 1   
    27    16    17 ar  
    28    16    21 ar  
    29    17    18 ar  
    30    17    31 1   
    31    18    19 ar  
    32    18    32 1   
    33    19    20 ar  
    34    19    33 1   
    35    20    21 ar  
    36    20    34 1   
    37    21    35 1   
@<TRIPOS>SUBSTRUCTURE
     1 55E         1 TEMP              0 ****  ****    0 ROOT
