@<TRIPOS>MOLECULE
55E
   35    37     1     0     0
SMALL
bcc


@<TRIPOS>ATOM
      1 O3           0.8000    -3.6390    -0.1840 o          1 55E      -0.468100
      2 C2           0.7580    -2.4300    -0.1150 c          1 55E       0.816900
      3 N4          -0.4780    -1.7990    -0.0670 ne         1 55E      -0.673100
      4 C5          -0.5420    -0.5180    -0.0440 cf         1 55E       0.567900
      5 C6          -1.8540     0.1260    -0.0010 ca         1 55E      -0.211900
      6 C21         -3.0170    -0.6530     0.0260 ca         1 55E      -0.021000
      7 C19         -4.2810    -0.0970     0.0670 ca         1 55E      -0.184300
      8 C20         -5.5110    -0.9540     0.0970 c3         1 55E      -0.051800
      9 C17         -4.3860     1.3040     0.0790 ca         1 55E       0.175100
     10 O18         -5.5670     1.9340     0.1170 oh         1 55E      -0.492100
     11 C16         -3.2420     2.1000     0.0510 ca         1 55E      -0.180000
     12 C15         -1.9920     1.5160     0.0120 ca         1 55E      -0.065000
     13 C7           0.6770     0.3440    -0.0600 c6         1 55E      -0.297000
     14 C8           1.9430    -0.4440    -0.0580 ce         1 55E       0.551900
     15 N1           1.9610    -1.7220    -0.0810 nf         1 55E      -0.662100
     16 C9           3.2250     0.2810    -0.0290 ca         1 55E      -0.166900
     17 C14          3.2690     1.6770    -0.0240 ca         1 55E      -0.085500
     18 C13          4.4860     2.3420    -0.0010 ca         1 55E      -0.140000
     19 C12          5.6730     1.6230     0.0190 ca         1 55E      -0.101000
     20 C11          5.6390     0.2320     0.0150 ca         1 55E      -0.140000
     21 C10          4.4270    -0.4330    -0.0100 ca         1 55E      -0.085500
     22 H21         -2.9220    -1.7310     0.0160 ha         1 55E       0.163000
     23 H20         -6.1130    -0.7810     0.9930 hc         1 55E       0.046367
     24 H20A        -6.1560    -0.7800    -0.7680 hc         1 55E       0.046367
     25 H20B        -5.2460    -2.0090     0.0900 hc         1 55E       0.046367
     26 HO18        -6.3030     1.3120     0.1330 ho         1 55E       0.436000
     27 H16         -3.3420     3.1770     0.0600 ha         1 55E       0.151000
     28 H15         -1.1290     2.1680    -0.0090 ha         1 55E       0.129000
     29 H7           0.6540     0.9940    -0.9400 hc         1 55E       0.098200
     30 H7A          0.6630     1.0150     0.8040 hc         1 55E       0.098200
     31 H14          2.3620     2.2660    -0.0400 ha         1 55E       0.144500
     32 H13          4.5050     3.4230     0.0020 ha         1 55E       0.137000
     33 H12          6.6210     2.1430     0.0380 ha         1 55E       0.135000
     34 H11          6.5610    -0.3330     0.0310 ha         1 55E       0.137000
     35 H10          4.4030    -1.5140    -0.0140 ha         1 55E       0.144500
@<TRIPOS>BOND
     1     1     2 2   
     2     2     3 1   
     3     2    15 1   
     4     3     4 2   
     5     4     5 1   
     6     4    13 1   
     7     5     6 ar  
     8     5    12 ar  
     9     6     7 ar  
    10     6    22 1   
    11     7     8 1   
    12     7     9 ar  
    13     8    23 1   
    14     8    24 1   
    15     8    25 1   
    16     9    10 1   
    17     9    11 ar  
    18    10    26 1   
    19    11    12 ar  
    20    11    27 1   
    21    12    28 1   
    22    13    14 1   
    23    13    29 1   
    24    13    30 1   
    25    14    15 2   
    26    14    16 1   
    27    16    17 ar  
    28    16    21 ar  
    29    17    18 ar  
    30    17    31 1   
    31    18    19 ar  
    32    18    32 1   
    33    19    20 ar  
    34    19    33 1   
    35    20    21 ar  
    36    20    34 1   
    37    21    35 1   
@<TRIPOS>SUBSTRUCTURE
     1 55E         1 TEMP              0 ****  ****    0 ROOT
