@<TRIPOS>MOLECULE
55F
   42    45     1     0     0
SMALL
abcg2


@<TRIPOS>ATOM
      1 C1           2.6350    -4.8870     0.8450 ca         1 55F       0.294900
      2 C2           3.6880    -4.5120    -0.0220 ca         1 55F       0.296900
      3 N3           3.6580    -3.4050    -0.7130 nb         1 55F      -0.624000
      4 C4           2.5680    -2.6220    -0.5630 ca         1 55F       0.228000
      5 C5           1.5130    -2.9970     0.3020 ca         1 55F       0.222000
      6 N6           1.5720    -4.1510     1.0060 nb         1 55F      -0.623000
      7 C7           2.4640    -1.4120    -1.2850 ca         1 55F      -0.085000
      8 C8           1.3670    -0.6150    -1.1390 ca         1 55F      -0.056000
      9 C9           0.3110    -0.9740    -0.2600 ca         1 55F       0.014000
     10 C10          0.3900    -2.1560     0.4390 ca         1 55F      -0.075000
     11 C11         -0.8750    -0.1300    -0.1420 cc         1 55F      -0.106000
     12 C12         -1.0990     1.2270    -0.0480 cd         1 55F       0.220000
     13 N13         -2.4430     1.4770     0.0300 nd         1 55F      -0.723000
     14 C14         -3.0210     0.3090    -0.0080 cc         1 55F       0.537400
     15 N15         -2.1290    -0.6920    -0.1010 na         1 55F      -0.296500
     16 C16         -0.1430     2.3290     0.0330 ca         1 55F       0.326000
     17 C17         -0.5660     3.6480    -0.1160 ca         1 55F      -0.111000
     18 C18          0.3760     4.6590    -0.0280 ca         1 55F      -0.119000
     19 C19          1.6850     4.3010     0.2010 ca         1 55F       0.110000
     20 C20          2.0530     2.9670     0.3440 ca         1 55F       0.332300
     21 N21          1.1310     2.0200     0.2660 nb         1 55F      -0.669000
     22 N22         -4.3870     0.1430     0.0470 ns         1 55F      -0.480400
     23 C23          3.4740     2.5700     0.5910 c3         1 55F      -0.143400
     24 F24          2.6320     5.2470     0.2890 f          1 55F      -0.172000
     25 C25         -5.0560    -1.0400    -0.0160 c          1 55F       0.617100
     26 O26         -4.4780    -2.1070    -0.1380 o          1 55F      -0.600100
     27 C27         -6.5510    -0.9280     0.0630 c3         1 55F      -0.175100
     28 H1           2.7000    -5.8150     1.4010 h4         1 55F       0.029100
     29 H2           4.5550    -5.1550    -0.1280 h4         1 55F       0.029100
     30 H7           3.2630    -1.1400    -1.9630 ha         1 55F       0.135000
     31 H8           1.2890     0.2940    -1.7170 ha         1 55F       0.131000
     32 H10         -0.3910    -2.4620     1.1240 ha         1 55F       0.134000
     33 H17         -1.6050     3.8790    -0.3000 ha         1 55F       0.146000
     34 H18          0.0980     5.6990    -0.1390 ha         1 55F       0.136000
     35 HN22        -4.9120     1.0000     0.1460 hn         1 55F       0.350500
     36 H23          3.8420     2.9660     1.5390 hc         1 55F       0.057033
     37 H23A         3.5510     1.4850     0.6190 hc         1 55F       0.057033
     38 H23B         4.1360     2.9420    -0.1920 hc         1 55F       0.057033
     39 H27         -6.9010     0.0750     0.2960 hc         1 55F       0.070033
     40 H27A        -6.9840    -1.2310    -0.8910 hc         1 55F       0.070033
     41 H27B        -6.9240    -1.6140     0.8220 hc         1 55F       0.070033
     42 H15         -2.3610    -1.6700    -0.1960 hn         1 55F       0.390000
@<TRIPOS>BOND
     1     1     2 ar  
     2     1     6 ar  
     3     1    28 1   
     4     2     3 ar  
     5     2    29 1   
     6     3     4 ar  
     7     4     5 ar  
     8     4     7 ar  
     9     5     6 ar  
    10     5    10 ar  
    11     7     8 ar  
    12     7    30 1   
    13     8     9 ar  
    14     8    31 1   
    15     9    10 ar  
    16     9    11 1   
    17    10    32 1   
    18    11    12 2   
    19    11    15 1   
    20    12    13 1   
    21    12    16 1   
    22    13    14 2   
    23    14    15 1   
    24    14    22 1   
    25    15    42 1   
    26    16    17 ar  
    27    16    21 ar  
    28    17    18 ar  
    29    17    33 1   
    30    18    19 ar  
    31    18    34 1   
    32    19    20 ar  
    33    19    24 1   
    34    20    21 ar  
    35    20    23 1   
    36    22    25 1   
    37    22    35 1   
    38    23    36 1   
    39    23    37 1   
    40    23    38 1   
    41    25    26 2   
    42    25    27 1   
    43    27    39 1   
    44    27    40 1   
    45    27    41 1   
@<TRIPOS>SUBSTRUCTURE
     1 55F         1 TEMP              0 ****  ****    0 ROOT
