@<TRIPOS>MOLECULE
55F
   42    45     1     0     0
SMALL
No Charge or Current Charge


@<TRIPOS>ATOM
      1 C1           3.1710    -4.4020     1.2210 ca         1 55F       0.294900
      2 C2           4.0590    -4.1280     0.1530 ca         1 55F       0.296900
      3 N3           3.7950    -3.1750    -0.7810 nb         1 55F      -0.624000
      4 C4           2.6260    -2.4940    -0.6330 ca         1 55F       0.228000
      5 C5           1.7250    -2.7720     0.4520 ca         1 55F       0.222000
      6 N6           2.0000    -3.7300     1.3790 nb         1 55F      -0.623000
      7 C7           2.2850    -1.4980    -1.5650 ca         1 55F      -0.085000
      8 C8           1.0870    -0.7750    -1.4420 ca         1 55F      -0.056000
      9 C9           0.2110    -1.0280    -0.3730 ca         1 55F       0.014000
     10 C10          0.5300    -2.0350     0.5550 ca         1 55F      -0.075000
     11 C11         -1.0450    -0.2930    -0.2470 cc         1 55F      -0.106000
     12 C12         -1.1910     1.0760    -0.0880 cd         1 55F       0.220000
     13 N13         -2.5540     1.3650    -0.0120 nd         1 55F      -0.723000
     14 C14         -3.1830     0.2120    -0.0840 cc         1 55F       0.537400
     15 N15         -2.3080    -0.8280    -0.2000 na         1 55F      -0.296500
     16 C16         -0.1390     2.1430     0.0300 ca         1 55F       0.326000
     17 C17         -0.5160     3.5070     0.0710 ca         1 55F      -0.111000
     18 C18          0.4630     4.5070     0.2190 ca         1 55F      -0.119000
     19 C19          1.8020     4.1090     0.3350 ca         1 55F       0.110000
     20 C20          2.1110     2.7310     0.3050 ca         1 55F       0.332300
     21 N21          1.1640     1.7720     0.1640 nb         1 55F      -0.669000
     22 N22         -4.5400     0.1370    -0.0340 ns         1 55F      -0.480400
     23 C23          3.5420     2.2340     0.4320 c3         1 55F      -0.143400
     24 F24          2.7730     5.0430     0.4790 f          1 55F      -0.172000
     25 C25         -5.3220    -0.9850    -0.0930 c          1 55F       0.617100
     26 O26         -4.8600    -2.1120    -0.2040 o          1 55F      -0.600100
     27 C27         -6.8190    -0.7260    -0.0090 c3         1 55F      -0.175100
     28 H1           3.4030    -5.1710     1.9570 h4         1 55F       0.029100
     29 H2           4.9920    -4.6790     0.0450 h4         1 55F       0.029100
     30 H7           2.9570    -1.2850    -2.3910 ha         1 55F       0.135000
     31 H8           0.8420    -0.0110    -2.1760 ha         1 55F       0.131000
     32 H10         -0.1520    -2.2430     1.3740 ha         1 55F       0.134000
     33 H17         -1.5620     3.7890    -0.0180 ha         1 55F       0.146000
     34 H18          0.1910     5.5590     0.2450 ha         1 55F       0.136000
     35 HN22        -5.0340     1.0110     0.0580 hn         1 55F       0.350500
     36 H23          3.9670     2.5220     1.4000 hc         1 55F       0.057033
     37 H23A         3.6060     1.1420     0.3500 hc         1 55F       0.057033
     38 H23B         4.1730     2.6640    -0.3550 hc         1 55F       0.057033
     39 H27         -7.0330    -0.1590     0.9040 hc         1 55F       0.070033
     40 H27A        -7.1050    -0.0200    -0.7970 hc         1 55F       0.070033
     41 H27B        -7.4090    -1.6490    -0.0600 hc         1 55F       0.070033
     42 H15         -2.5790    -1.8010    -0.2690 hn         1 55F       0.390000
@<TRIPOS>BOND
     1     1     2 ar  
     2     1     6 ar  
     3     1    28 1   
     4     2     3 ar  
     5     2    29 1   
     6     3     4 ar  
     7     4     5 ar  
     8     4     7 ar  
     9     5     6 ar  
    10     5    10 ar  
    11     7     8 ar  
    12     7    30 1   
    13     8     9 ar  
    14     8    31 1   
    15     9    10 ar  
    16     9    11 1   
    17    10    32 1   
    18    11    12 2   
    19    11    15 1   
    20    12    13 1   
    21    12    16 1   
    22    13    14 2   
    23    14    15 1   
    24    14    22 1   
    25    15    42 1   
    26    16    17 ar  
    27    16    21 ar  
    28    17    18 ar  
    29    17    33 1   
    30    18    19 ar  
    31    18    34 1   
    32    19    20 ar  
    33    19    24 1   
    34    20    21 ar  
    35    20    23 1   
    36    22    25 1   
    37    22    35 1   
    38    23    36 1   
    39    23    37 1   
    40    23    38 1   
    41    25    26 2   
    42    25    27 1   
    43    27    39 1   
    44    27    40 1   
    45    27    41 1   
@<TRIPOS>SUBSTRUCTURE
     1 55F         1 TEMP              0 ****  ****    0 ROOT
