@<TRIPOS>MOLECULE
55G
   40    44     1     0     0
SMALL
No Charge or Current Charge


@<TRIPOS>ATOM
      1 O           -6.2050    -0.0540    -0.8350 o          1 55G      -0.546000
      2 C1          -5.0420     0.1370    -0.5240 c          1 55G       0.573200
      3 C14         -4.0290    -0.9320    -0.4600 cc         1 55G      -0.300200
      4 C13         -2.7060    -0.7550    -0.0780 cd         1 55G       0.113600
      5 C15         -1.8240    -1.9250     0.1240 ca         1 55G      -0.069800
      6 C20         -0.8640    -1.9170     1.1610 ca         1 55G      -0.091500
      7 C19         -0.0430    -3.0350     1.3900 ca         1 55G      -0.112000
      8 C18         -0.1840    -4.1850     0.5980 ca         1 55G      -0.097000
      9 C17         -1.1550    -4.2180    -0.4160 ca         1 55G      -0.112000
     10 C16         -1.9770    -3.1010    -0.6450 ca         1 55G      -0.091500
     11 C3          -2.3480     0.6410     0.0860 cd         1 55G      -0.207800
     12 C4          -1.1300     1.2610     0.2580 cc         1 55G      -0.008000
     13 N2          -1.4720     2.5820     0.5580 na         1 55G       0.022800
     14 N3          -2.8320     2.8480     0.4110 nc         1 55G      -0.554800
     15 C2          -3.3060     1.6610     0.1130 cd         1 55G       0.403900
     16 N1          -4.5960     1.3770    -0.1770 ns         1 55G      -0.454400
     17 C5           0.2350     0.8510     0.0210 cc         1 55G      -0.213000
     18 S            1.6100     1.8140     0.4790 ss         1 55G      -0.005400
     19 C7           2.6300     0.6040    -0.2690 cc         1 55G       0.508900
     20 N4           1.9920    -0.3800    -0.8910 nd         1 55G      -0.643000
     21 C6           0.6190    -0.2300    -0.7450 cd         1 55G       0.337900
     22 C8           4.0940     0.6860    -0.2350 ca         1 55G      -0.198500
     23 C12          4.8990    -0.2890    -0.8650 ca         1 55G      -0.028000
     24 C11          6.2940    -0.1570    -0.7960 ca         1 55G      -0.168000
     25 C10          6.8460     0.9320    -0.1080 ca         1 55G       0.351900
     26 N5           6.0880     1.8720     0.5000 nb         1 55G      -0.663000
     27 C9           4.7420     1.7450     0.4340 ca         1 55G       0.353900
     28 H1          -4.4350    -1.9160    -0.6520 ha         1 55G       0.212000
     29 H2          -0.7610    -1.0460     1.8030 ha         1 55G       0.119500
     30 H3           0.6960    -3.0110     2.1870 ha         1 55G       0.116500
     31 H4           0.4500    -5.0510     0.7750 ha         1 55G       0.115000
     32 H5          -1.2700    -5.1110    -1.0260 ha         1 55G       0.116500
     33 H6          -2.7110    -3.1470    -1.4450 ha         1 55G       0.119500
     34 H7          -0.8120     3.3270     0.7720 hn         1 55G       0.382000
     35 H8          -5.2810     2.1170    -0.1850 hn         1 55G       0.341500
     36 H9          -0.0330    -0.9220    -1.2590 h4         1 55G       0.058100
     37 H10          4.4590    -1.1320    -1.3970 ha         1 55G       0.144000
     38 H11          6.9450    -0.8870    -1.2690 ha         1 55G       0.130000
     39 H12          7.9260     1.0580    -0.0400 h4         1 55G       0.025100
     40 H13          4.1810     2.5280     0.9400 h4         1 55G       0.020100
@<TRIPOS>BOND
     1     1     2 2   
     2     2     3 1   
     3     2    16 1   
     4     3     4 2   
     5     3    28 1   
     6     4     5 1   
     7     4    11 1   
     8     5     6 ar  
     9     5    10 ar  
    10     6     7 ar  
    11     6    29 1   
    12     7     8 ar  
    13     7    30 1   
    14     8     9 ar  
    15     8    31 1   
    16     9    10 ar  
    17     9    32 1   
    18    10    33 1   
    19    11    12 2   
    20    11    15 1   
    21    12    13 1   
    22    12    17 1   
    23    13    14 1   
    24    13    34 1   
    25    14    15 2   
    26    15    16 1   
    27    16    35 1   
    28    17    18 1   
    29    17    21 2   
    30    18    19 1   
    31    19    20 2   
    32    19    22 1   
    33    20    21 1   
    34    21    36 1   
    35    22    23 ar  
    36    22    27 ar  
    37    23    24 ar  
    38    23    37 1   
    39    24    25 ar  
    40    24    38 1   
    41    25    26 ar  
    42    25    39 1   
    43    26    27 ar  
    44    27    40 1   
@<TRIPOS>SUBSTRUCTURE
     1 55G         1 TEMP              0 ****  ****    0 ROOT
