@<TRIPOS>MOLECULE
55G
   40    44     1     0     0
SMALL
abcg2


@<TRIPOS>ATOM
      1 O           -6.3190    -0.2880     0.3610 o          1 55G      -0.546000
      2 C1          -5.1290    -0.0200     0.2530 c          1 55G       0.573200
      3 C14         -4.0790    -1.0340     0.2220 cc         1 55G      -0.300200
      4 C13         -2.7570    -0.7520     0.1050 cd         1 55G       0.113600
      5 C15         -1.7380    -1.8190     0.1450 ca         1 55G      -0.069800
      6 C20         -0.6980    -1.7550     1.0710 ca         1 55G      -0.091500
      7 C19          0.2670    -2.7490     1.1090 ca         1 55G      -0.112000
      8 C18          0.2090    -3.8100     0.2140 ca         1 55G      -0.097000
      9 C17         -0.8260    -3.8810    -0.7080 ca         1 55G      -0.112000
     10 C16         -1.8000    -2.8920    -0.7390 ca         1 55G      -0.091500
     11 C3          -2.3910     0.6230    -0.0370 cd         1 55G      -0.207800
     12 C4          -1.2200     1.3540    -0.2320 cc         1 55G      -0.008000
     13 N2          -1.5980     2.6400    -0.2340 na         1 55G       0.022800
     14 N3          -2.9120     2.8320    -0.0840 nc         1 55G      -0.554800
     15 C2          -3.3910     1.6130     0.0270 cd         1 55G       0.403900
     16 N1          -4.7050     1.2850     0.1780 ns         1 55G      -0.454400
     17 C5           0.1510     0.9380    -0.4330 cc         1 55G      -0.213000
     18 S            1.4650     1.5900     0.4680 ss         1 55G      -0.005400
     19 C7           2.5460     0.5430    -0.3840 cc         1 55G       0.508900
     20 N4           1.9590    -0.2280    -1.2500 nd         1 55G      -0.643000
     21 C6           0.6240    -0.0160    -1.2860 cd         1 55G       0.337900
     22 C8           3.9820     0.5270    -0.1300 ca         1 55G      -0.198500
     23 C12          4.7750    -0.4980    -0.6450 ca         1 55G      -0.028000
     24 C11          6.1320    -0.4870    -0.3850 ca         1 55G      -0.168000
     25 C10          6.6550     0.5440     0.3830 ca         1 55G       0.351900
     26 N5           5.9120     1.5290     0.8750 nb         1 55G      -0.663000
     27 C9           4.6140     1.5180     0.6200 ca         1 55G       0.353900
     28 H1          -4.4100    -2.0560     0.3440 ha         1 55G       0.212000
     29 H2          -0.6490    -0.9310     1.7730 ha         1 55G       0.119500
     30 H3           1.0670    -2.6930     1.8350 ha         1 55G       0.116500
     31 H4           0.9680    -4.5800     0.2370 ha         1 55G       0.115000
     32 H5          -0.8760    -4.7050    -1.4070 ha         1 55G       0.116500
     33 H6          -2.5980    -2.9420    -1.4690 ha         1 55G       0.119500
     34 H7          -1.0030     3.4390    -0.3980 hn         1 55G       0.382000
     35 H8          -5.4010     2.0170     0.2150 hn         1 55G       0.341500
     36 H9           0.0020    -0.5850    -1.9620 h4         1 55G       0.058100
     37 H10          4.3280    -1.2910    -1.2300 ha         1 55G       0.144000
     38 H11          6.7780    -1.2660    -0.7660 ha         1 55G       0.130000
     39 H12          7.7140     0.5760     0.6090 h4         1 55G       0.025100
     40 H13          4.0460     2.3490     1.0290 h4         1 55G       0.020100
@<TRIPOS>BOND
     1     1     2 2   
     2     2     3 1   
     3     2    16 1   
     4     3     4 2   
     5     3    28 1   
     6     4     5 1   
     7     4    11 1   
     8     5     6 ar  
     9     5    10 ar  
    10     6     7 ar  
    11     6    29 1   
    12     7     8 ar  
    13     7    30 1   
    14     8     9 ar  
    15     8    31 1   
    16     9    10 ar  
    17     9    32 1   
    18    10    33 1   
    19    11    12 2   
    20    11    15 1   
    21    12    13 1   
    22    12    17 1   
    23    13    14 1   
    24    13    34 1   
    25    14    15 2   
    26    15    16 1   
    27    16    35 1   
    28    17    18 1   
    29    17    21 2   
    30    18    19 1   
    31    19    20 2   
    32    19    22 1   
    33    20    21 1   
    34    21    36 1   
    35    22    23 ar  
    36    22    27 ar  
    37    23    24 ar  
    38    23    37 1   
    39    24    25 ar  
    40    24    38 1   
    41    25    26 ar  
    42    25    39 1   
    43    26    27 ar  
    44    27    40 1   
@<TRIPOS>SUBSTRUCTURE
     1 55G         1 TEMP              0 ****  ****    0 ROOT
