@<TRIPOS>MOLECULE
55I
   25    25     1     0     0
SMALL
abcg2


@<TRIPOS>ATOM
      1 C           14.8180    -0.2670     2.9900 c          1 55I       0.686000
      2 N           13.5740    -1.5460     1.2030 n8         1 55I      -1.005200
      3 O           14.6880    -0.0820     4.2150 o          1 55I      -0.727000
      4 CA          14.3650    -1.6350     2.4260 c3         1 55I       0.017500
      5 CB          15.5970    -2.5070     2.1330 c3         1 55I      -0.023100
      6 CG          16.4560    -2.7280     3.3410 ca         1 55I       0.001700
      7 CZ          17.9970    -3.0920     5.6500 ca         1 55I      -0.220300
      8 C13         18.7800    -3.2190     6.9150 c3         1 55I       0.354300
      9 F19         18.3660    -2.3350     7.8400 f          1 55I      -0.126000
     10 F20         20.0860    -2.9900     6.7290 f          1 55I      -0.126000
     11 F21         18.6730    -4.4320     7.4710 f          1 55I      -0.126000
     12 CD1         16.1110    -3.6890     4.2880 ca         1 55I      -0.103500
     13 CD2         17.5970    -1.9640     3.5670 ca         1 55I      -0.103500
     14 CE1         16.8660    -3.8730     5.4350 ca         1 55I      -0.065500
     15 CE2         18.3630    -2.1380     4.7080 ca         1 55I      -0.065500
     16 OXT         15.2970     0.5320     2.1560 o          1 55I      -0.727000
     17 H4          13.7600    -2.1480     3.1800 h1         1 55I       0.042700
     18 H5          15.2510    -3.4670     1.7430 hc         1 55I       0.040200
     19 H6          16.1850    -2.0310     1.3430 hc         1 55I       0.040200
     20 H7          15.2350    -4.3070     4.1300 ha         1 55I       0.121500
     21 H8          17.8890    -1.2140     2.8420 ha         1 55I       0.121500
     22 H9          16.5660    -4.6260     6.1510 ha         1 55I       0.111000
     23 H10         19.2410    -1.5210     4.8520 ha         1 55I       0.111000
     24 H           12.6900    -1.1000     1.4190 hn         1 55I       0.385500
     25 HN          14.0470    -0.8980     0.5820 hn         1 55I       0.385500
@<TRIPOS>BOND
     1     1     3 1   
     2     1     4 1   
     3     1    16 1   
     4     2     4 1   
     5     2    24 1   
     6     2    25 1   
     7     4     5 1   
     8     4    17 1   
     9     5     6 1   
    10     5    18 1   
    11     5    19 1   
    12     6    12 ar  
    13     6    13 ar  
    14     7     8 1   
    15     7    14 ar  
    16     7    15 ar  
    17     8     9 1   
    18     8    10 1   
    19     8    11 1   
    20    12    14 ar  
    21    12    20 1   
    22    13    15 ar  
    23    13    21 1   
    24    14    22 1   
    25    15    23 1   
@<TRIPOS>SUBSTRUCTURE
     1 55I         1 TEMP              0 ****  ****    0 ROOT
