@<TRIPOS>MOLECULE
55I
   25    25     1     0     0
SMALL
No Charge or Current Charge


@<TRIPOS>ATOM
      1 C           14.7350    -0.1630     2.9020 c          1 55I       0.686000
      2 N           13.4440    -1.6770     1.1910 n8         1 55I      -1.005200
      3 O           14.3480     0.1680     4.0140 o          1 55I      -0.727000
      4 CA          14.3690    -1.6150     2.3830 c3         1 55I       0.017500
      5 CB          15.6500    -2.4460     2.1110 c3         1 55I      -0.023100
      6 CG          16.4830    -2.6730     3.3670 ca         1 55I       0.001700
      7 CZ          18.0330    -3.1080     5.7020 ca         1 55I      -0.220300
      8 C13         18.8640    -3.3330     6.9720 c3         1 55I       0.354300
      9 F19         18.4620    -2.5180     7.9720 f          1 55I      -0.126000
     10 F20         20.1810    -3.0950     6.7740 f          1 55I      -0.126000
     11 F21         18.7670    -4.6010     7.4320 f          1 55I      -0.126000
     12 CD1         16.0790    -3.6210     4.3250 ca         1 55I      -0.103500
     13 CD2         17.6630    -1.9380     3.5860 ca         1 55I      -0.103500
     14 CE1         16.8440    -3.8360     5.4840 ca         1 55I      -0.065500
     15 CE2         18.4310    -2.1500     4.7440 ca         1 55I      -0.065500
     16 OXT         15.2720     0.6150     2.1240 o          1 55I      -0.727000
     17 H4          13.8370    -2.1110     3.2070 h1         1 55I       0.042700
     18 H5          15.3660    -3.4190     1.6930 hc         1 55I       0.040200
     19 H6          16.2500    -1.9490     1.3380 hc         1 55I       0.040200
     20 H7          15.1670    -4.1940     4.1710 ha         1 55I       0.121500
     21 H8          17.9860    -1.1960     2.8590 ha         1 55I       0.121500
     22 H9          16.5060    -4.5710     6.2120 ha         1 55I       0.111000
     23 H10         19.3350    -1.5630     4.8940 ha         1 55I       0.111000
     24 H           12.5750    -1.1750     1.4160 hn         1 55I       0.385500
     25 HN          13.8510    -1.1080     0.4370 hn         1 55I       0.385500
@<TRIPOS>BOND
     1     1     3 1   
     2     1     4 1   
     3     1    16 1   
     4     2     4 1   
     5     2    24 1   
     6     2    25 1   
     7     4     5 1   
     8     4    17 1   
     9     5     6 1   
    10     5    18 1   
    11     5    19 1   
    12     6    12 ar  
    13     6    13 ar  
    14     7     8 1   
    15     7    14 ar  
    16     7    15 ar  
    17     8     9 1   
    18     8    10 1   
    19     8    11 1   
    20    12    14 ar  
    21    12    20 1   
    22    13    15 ar  
    23    13    21 1   
    24    14    22 1   
    25    15    23 1   
@<TRIPOS>SUBSTRUCTURE
     1 55I         1 TEMP              0 ****  ****    0 ROOT
