@<TRIPOS>MOLECULE
55J
   53    57     1     0     0
SMALL
abcg2


@<TRIPOS>ATOM
      1 C1          -0.9830    -2.2690    -0.0440 ca         1 55J       0.108400
      2 C2          -0.8430    -2.9100     1.1980 ca         1 55J      -0.074200
      3 C3           0.2520    -3.6990     1.5080 ca         1 55J      -0.095000
      4 C11          3.3100    -1.4960    -0.8300 ca         1 55J      -0.194000
      5 C12          4.7060     0.4110    -0.1110 cc         1 55J       0.372500
      6 C13         -2.7070    -1.7620     1.0840 cc         1 55J       0.666700
      7 C15         -4.7890    -0.4440     0.8640 ca         1 55J       0.351000
      8 C16         -5.9100    -0.0190     1.5860 ca         1 55J      -0.167500
      9 C17         -6.8620     0.7910     1.0030 ca         1 55J      -0.025500
     10 C18         -6.7230     1.1970    -0.3220 ca         1 55J      -0.235300
     11 C19         -5.6100     0.7790    -1.0400 ca         1 55J      -0.025500
     12 C20         -4.6480    -0.0340    -0.4650 ca         1 55J      -0.167500
     13 C21          4.5870     1.8850     1.4230 cd         1 55J       0.310900
     14 C22          5.7390     2.1360     0.7260 cc         1 55J      -0.338300
     15 C23         -7.7230     2.1140    -0.9390 c3         1 55J       0.362300
     16 C24          6.7600     3.1890     0.8950 c3         1 55J       0.398300
     17 C4           1.2310    -3.8360     0.5340 ca         1 55J      -0.107000
     18 C5           1.0910    -3.2000    -0.6990 ca         1 55J       0.067100
     19 C6           0.0010    -2.4090    -1.0160 ca         1 55J      -0.060000
     20 C7           3.1230    -2.5630    -1.6990 ca         1 55J       0.176100
     21 C8           4.0770    -2.8030    -2.6860 ca         1 55J      -0.190000
     22 C9           5.1720    -1.9640    -2.7540 ca         1 55J       0.370900
     23 N1           5.3700    -0.9400    -1.9330 nb         1 55J      -0.717000
     24 C10          4.4530    -0.7230    -0.9970 ca         1 55J       0.335000
     25 N2          -2.1560    -1.5600    -0.0850 nd         1 55J      -0.623100
     26 N3          -1.9720    -2.5660     1.9070 na         1 55J      -0.211600
     27 N4          -3.8880    -1.2600     1.5280 nu         1 55J      -0.903200
     28 N5           3.9560     0.8100     0.8920 nd         1 55J      -0.671000
     29 N6           5.7970     1.1870    -0.2480 na         1 55J      -0.235500
     30 F1          -8.9470     1.9580    -0.4170 f          1 55J      -0.115667
     31 F2          -7.3990     3.4070    -0.7630 f          1 55J      -0.115667
     32 F3          -7.8360     1.9310    -2.2610 f          1 55J      -0.115667
     33 F4           7.9990     2.6830     0.9720 f          1 55J      -0.108333
     34 F5           6.7730     4.0580    -0.1260 f          1 55J      -0.108333
     35 F6           6.5330     3.8850     2.0090 f          1 55J      -0.108333
     36 H1           0.3560    -4.1960     2.4630 ha         1 55J       0.123000
     37 H2           2.6070    -1.2590    -0.0440 ha         1 55J       0.162000
     38 H3          -2.4220    -2.1170     3.9080 h1         1 55J       0.054700
     39 H4          -3.2490    -3.5500     3.2510 h1         1 55J       0.054700
     40 H5          -1.5340    -3.6120     3.6420 h1         1 55J       0.054700
     41 H6          -6.0380    -0.3280     2.6160 ha         1 55J       0.139000
     42 H7          -7.7110     1.1000     1.5960 ha         1 55J       0.130500
     43 H8          -5.4710     1.0790    -2.0710 ha         1 55J       0.130500
     44 H9          -3.7960    -0.3480    -1.0460 ha         1 55J       0.139000
     45 H10          4.1910     2.4220     2.2700 h4         1 55J       0.053100
     46 H11          2.1030    -4.4460     0.7280 ha         1 55J       0.131000
     47 H12         -0.0840    -1.9260    -1.9810 ha         1 55J       0.146000
     48 H13          3.9660    -3.6240    -3.3810 ha         1 55J       0.142000
     49 H14          5.9280    -2.1300    -3.5110 h4         1 55J       0.025100
     50 H15         -4.1430    -1.4880     2.4770 hn         1 55J       0.501000
     51 H17          6.5100     1.0550    -0.9520 hn         1 55J       0.388000
     52 O1           2.0700    -3.3970    -1.6570 os         1 55J      -0.241200
     53 C14         -2.3220    -2.9770     3.2470 c3         1 55J       0.060900
@<TRIPOS>BOND
     1     1     2 ar  
     2     1    19 ar  
     3     1    25 1   
     4     2     3 ar  
     5     2    26 1   
     6     3    17 ar  
     7     3    36 1   
     8     4    20 ar  
     9     4    24 ar  
    10     4    37 1   
    11     5    24 1   
    12     5    28 2   
    13     5    29 1   
    14     6    25 2   
    15     6    26 1   
    16     6    27 1   
    17     7     8 ar  
    18     7    12 ar  
    19     7    27 1   
    20     8     9 ar  
    21     8    41 1   
    22     9    10 ar  
    23     9    42 1   
    24    10    11 ar  
    25    10    15 1   
    26    11    12 ar  
    27    11    43 1   
    28    12    44 1   
    29    13    14 2   
    30    13    28 1   
    31    13    45 1   
    32    14    16 1   
    33    14    29 1   
    34    15    30 1   
    35    15    31 1   
    36    15    32 1   
    37    16    33 1   
    38    16    34 1   
    39    16    35 1   
    40    17    18 ar  
    41    17    46 1   
    42    18    19 ar  
    43    18    52 1   
    44    19    47 1   
    45    20    21 ar  
    46    20    52 1   
    47    21    22 ar  
    48    21    48 1   
    49    22    23 ar  
    50    22    49 1   
    51    23    24 ar  
    52    26    53 1   
    53    27    50 1   
    54    29    51 1   
    55    38    53 1   
    56    39    53 1   
    57    40    53 1   
@<TRIPOS>SUBSTRUCTURE
     1 55J         1 TEMP              0 ****  ****    0 ROOT
