@<TRIPOS>MOLECULE
55J
   53    57     1     0     0
SMALL
No Charge or Current Charge


@<TRIPOS>ATOM
      1 C1          -0.7600    -2.7130     0.2910 ca         1 55J       0.108400
      2 C2          -0.9820    -3.6100     1.3020 ca         1 55J      -0.074200
      3 C3          -0.0730    -4.6270     1.6290 ca         1 55J      -0.095000
      4 C11          3.3970    -1.6690    -0.5240 ca         1 55J      -0.194000
      5 C12          4.3270     0.6370    -0.1640 cc         1 55J       0.372500
      6 C13         -2.6590    -2.1830     1.1260 cc         1 55J       0.666700
      7 C15         -4.4510    -0.4350     0.8280 ca         1 55J       0.351000
      8 C16         -5.1460     0.4620     1.6520 ca         1 55J      -0.167500
      9 C17         -5.8040     1.5760     1.1020 ca         1 55J      -0.025500
     10 C18         -5.7850     1.7980    -0.2920 ca         1 55J      -0.235300
     11 C19         -5.0880     0.8910    -1.1180 ca         1 55J      -0.025500
     12 C20         -4.4330    -0.2190    -0.5590 ca         1 55J      -0.167500
     13 C21          4.2230     2.1250     1.4140 cd         1 55J       0.310900
     14 C22          5.0030     2.6820     0.4330 cc         1 55J      -0.338300
     15 C23         -6.4920     3.0170    -0.8950 c3         1 55J       0.362300
     16 C24          5.6780     4.0300     0.4070 c3         1 55J       0.398300
     17 C4           1.1120    -4.7090     0.8680 ca         1 55J      -0.107000
     18 C5           1.3590    -3.7840    -0.1730 ca         1 55J       0.067100
     19 C6           0.4110    -2.7770    -0.4770 ca         1 55J      -0.060000
     20 C7           3.2530    -2.8140    -1.3220 ca         1 55J       0.176100
     21 C8           3.8990    -2.8570    -2.5590 ca         1 55J      -0.190000
     22 C9           4.6490    -1.7490    -2.9670 ca         1 55J       0.370900
     23 N1           4.7840    -0.6350    -2.2110 nb         1 55J      -0.717000
     24 C10          4.1670    -0.5870    -0.9940 ca         1 55J       0.335000
     25 N2          -1.8080    -1.8020     0.1670 nd         1 55J      -0.623100
     26 N3          -2.1900    -3.2820     1.8430 na         1 55J      -0.211600
     27 N4          -3.8250    -1.5370     1.4030 nu         1 55J      -0.903200
     28 N5           3.8060     0.8620     1.0400 nd         1 55J      -0.671000
     29 N6           5.0660     1.7240    -0.5670 na         1 55J      -0.235500
     30 F1          -7.5730     3.3930    -0.1750 f          1 55J      -0.115667
     31 F2          -5.6650     4.0840    -0.9530 f          1 55J      -0.115667
     32 F3          -6.9300     2.7870    -2.1540 f          1 55J      -0.115667
     33 F4           7.0030     3.9200     0.6460 f          1 55J      -0.108333
     34 F5           5.5330     4.6350    -0.7930 f          1 55J      -0.108333
     35 F6           5.1670     4.8630     1.3410 f          1 55J      -0.108333
     36 H1          -0.2680    -5.3300     2.4350 ha         1 55J       0.123000
     37 H2           2.9240    -1.6160     0.4520 ha         1 55J       0.162000
     38 H3          -3.8970    -3.8590     2.9610 h1         1 55J       0.054700
     39 H4          -2.6180    -5.0930     2.8500 h1         1 55J       0.054700
     40 H5          -2.3900    -3.6690     3.9090 h1         1 55J       0.054700
     41 H6          -5.1720     0.3050     2.7260 ha         1 55J       0.139000
     42 H7          -6.3250     2.2640     1.7650 ha         1 55J       0.130500
     43 H8          -5.0510     1.0410    -2.1960 ha         1 55J       0.130500
     44 H9          -3.9170    -0.9160    -1.2120 ha         1 55J       0.139000
     45 H10          3.9390     2.5600     2.3650 h4         1 55J       0.053100
     46 H11          1.8430    -5.4840     1.0850 ha         1 55J       0.131000
     47 H12          0.5760    -2.0700    -1.2840 ha         1 55J       0.146000
     48 H13          3.8210    -3.7310    -3.1980 ha         1 55J       0.142000
     49 H14          5.1610    -1.7490    -3.9280 h4         1 55J       0.025100
     50 H15         -4.1730    -1.7840     2.3230 hn         1 55J       0.501000
     51 H17          5.5570     1.7770    -1.4540 hn         1 55J       0.388000
     52 O1           2.5220    -3.9010    -0.9010 os         1 55J      -0.241200
     53 C14         -2.8120    -4.0190     2.9580 c3         1 55J       0.060900
@<TRIPOS>BOND
     1     1     2 ar  
     2     1    19 ar  
     3     1    25 1   
     4     2     3 ar  
     5     2    26 1   
     6     3    17 ar  
     7     3    36 1   
     8     4    20 ar  
     9     4    24 ar  
    10     4    37 1   
    11     5    24 1   
    12     5    28 2   
    13     5    29 1   
    14     6    25 2   
    15     6    26 1   
    16     6    27 1   
    17     7     8 ar  
    18     7    12 ar  
    19     7    27 1   
    20     8     9 ar  
    21     8    41 1   
    22     9    10 ar  
    23     9    42 1   
    24    10    11 ar  
    25    10    15 1   
    26    11    12 ar  
    27    11    43 1   
    28    12    44 1   
    29    13    14 2   
    30    13    28 1   
    31    13    45 1   
    32    14    16 1   
    33    14    29 1   
    34    15    30 1   
    35    15    31 1   
    36    15    32 1   
    37    16    33 1   
    38    16    34 1   
    39    16    35 1   
    40    17    18 ar  
    41    17    46 1   
    42    18    19 ar  
    43    18    52 1   
    44    19    47 1   
    45    20    21 ar  
    46    20    52 1   
    47    21    22 ar  
    48    21    48 1   
    49    22    23 ar  
    50    22    49 1   
    51    23    24 ar  
    52    26    53 1   
    53    27    50 1   
    54    29    51 1   
    55    38    53 1   
    56    39    53 1   
    57    40    53 1   
@<TRIPOS>SUBSTRUCTURE
     1 55J         1 TEMP              0 ****  ****    0 ROOT
