@<TRIPOS>MOLECULE
55L
   73    75     1     0     0
SMALL
abcg2


@<TRIPOS>ATOM
      1 O43        -10.4790     2.9680    -0.4310 o          1 55L      -0.750500
      2 C42         -9.3520     3.4980    -0.3750 c          1 55L       0.718000
      3 O44         -9.0440     4.6310    -0.7970 o          1 55L      -0.750500
      4 C41         -8.2100     2.6910     0.2700 c3         1 55L      -0.209400
      5 C40         -8.6190     1.3450     0.8460 c3         1 55L      -0.061400
      6 C29         -7.4580     0.6110     1.5230 c3         1 55L       0.029700
      7 C37         -7.9770    -0.6420     2.2310 c          1 55L       0.589100
      8 N39         -8.4500    -0.4180     3.4650 nt         1 55L      -0.619000
      9 O38         -7.9900    -1.7350     1.6890 o          1 55L      -0.587100
     10 N28         -6.4580     0.2530     0.5510 ns         1 55L      -0.477900
     11 C27         -5.2930    -0.3040     0.9100 c          1 55L       0.590100
     12 O36         -4.9410    -0.4060     2.0770 o          1 55L      -0.650100
     13 C26         -4.4500    -0.8480    -0.2340 c3         1 55L       0.032700
     14 C31         -4.7410    -2.3460    -0.3960 c3         1 55L      -0.057400
     15 C32         -4.1010    -2.9250    -1.6450 c3         1 55L      -0.215400
     16 C33         -4.3440    -4.4260    -1.8690 c          1 55L       0.726000
     17 O35         -3.9770    -4.8790    -2.9740 o          1 55L      -0.763000
     18 O34         -4.8680    -5.0780    -0.9440 o          1 55L      -0.763000
     19 N25         -3.0590    -0.5900     0.0390 ns         1 55L      -0.473900
     20 C20         -2.2330     0.0940    -0.7750 c          1 55L       0.650100
     21 O30         -2.6020     0.5610    -1.8430 o          1 55L      -0.650100
     22 C19         -0.8400     0.3530    -0.2110 c3         1 55L      -0.095700
     23 C21         -0.2140    -0.8560     0.4800 c3         1 55L      -0.222400
     24 C22         -0.0520    -2.1140    -0.3910 c          1 55L       0.712000
     25 O24          0.5630    -3.0630     0.1350 o          1 55L      -0.723000
     26 O23         -0.5490    -2.0900    -1.5340 o          1 55L      -0.723000
     27 C71          0.0600     0.9430    -1.3070 c3         1 55L      -0.116700
     28 C9           1.4100     1.3020    -0.8130 cc         1 55L       0.241300
     29 C8           2.6380     0.7740    -1.0270 cd         1 55L      -0.253000
     30 O10          1.5270     2.3400     0.0250 os         1 55L      -0.069700
     31 N11          2.8290     2.5140     0.3750 nc         1 55L      -0.407300
     32 C7           3.5040     1.5850    -0.2470 cd         1 55L       0.305500
     33 C6           4.9570     1.4760    -0.1020 ca         1 55L      -0.085500
     34 C1           5.7030     2.4890     0.5020 ca         1 55L      -0.088000
     35 C2           7.0750     2.3710     0.6330 ca         1 55L      -0.105500
     36 C5           5.6240     0.3450    -0.5670 ca         1 55L      -0.088000
     37 C4           6.9970     0.2270    -0.4310 ca         1 55L      -0.105500
     38 C3           7.7460     1.2370     0.1700 cp         1 55L      -0.069000
     39 C12          9.2100     1.1130     0.3120 cp         1 55L       0.005000
     40 C17          9.7840    -0.1260     0.5980 ca         1 55L      -0.096000
     41 C13         10.0420     2.2230     0.1640 ca         1 55L      -0.106000
     42 C14         11.4160     2.0950     0.2950 ca         1 55L      -0.110000
     43 C15         11.9910     0.8640     0.5780 ca         1 55L      -0.121000
     44 C16         11.1580    -0.2340     0.7260 ca         1 55L       0.120000
     45 CL          11.8510    -1.7810     1.0920 cl         1 55L      -0.221000
     46 H2          -7.4230     2.5660    -0.4800 hc         1 55L       0.026700
     47 H3          -7.7560     3.3020     1.0580 hc         1 55L       0.026700
     48 H4          -9.4090     1.4880     1.5840 hc         1 55L       0.048200
     49 H5          -9.0410     0.7040     0.0660 hc         1 55L       0.048200
     50 H6          -7.0090     1.2780     2.2660 h1         1 55L       0.055700
     51 H7          -8.8800    -1.1580     3.9950 hn         1 55L       0.294000
     52 H8          -8.4170     0.4930     3.8870 hn         1 55L       0.294000
     53 H9          -6.7230     0.2440    -0.4220 hn         1 55L       0.331500
     54 H10         -4.7070    -0.3330    -1.1620 h1         1 55L       0.079700
     55 H11         -4.3890    -2.8720     0.4950 hc         1 55L       0.050200
     56 H12         -5.8250    -2.4860    -0.4240 hc         1 55L       0.050200
     57 H13         -4.4600    -2.3820    -2.5270 hc         1 55L       0.047700
     58 H14         -3.0200    -2.7530    -1.6210 hc         1 55L       0.047700
     59 H16         -2.7040    -0.9480     0.9110 hn         1 55L       0.326500
     60 H17         -0.9840     1.1270     0.5540 hc         1 55L       0.026700
     61 H18          0.7650    -0.5760     0.8780 hc         1 55L       0.022700
     62 H19         -0.7830    -1.1250     1.3770 hc         1 55L       0.022700
     63 H21          0.1800     0.2160    -2.1090 hc         1 55L       0.091200
     64 H22         -0.4090     1.8290    -1.7370 hc         1 55L       0.091200
     65 H23          2.8820    -0.0690    -1.6520 ha         1 55L       0.165000
     66 H24          5.2110     3.3780     0.8740 ha         1 55L       0.136000
     67 H25          7.6250     3.1660     1.1180 ha         1 55L       0.106000
     68 H26          5.0740    -0.4580    -1.0400 ha         1 55L       0.136000
     69 H27          7.4880    -0.6560    -0.8190 ha         1 55L       0.106000
     70 H28          9.1590    -0.9980     0.7400 ha         1 55L       0.140000
     71 H29          9.6190     3.1880    -0.0800 ha         1 55L       0.120000
     72 H30         12.0530     2.9610     0.1690 ha         1 55L       0.106000
     73 H31         13.0620     0.7640     0.6790 ha         1 55L       0.117000
@<TRIPOS>BOND
     1     1     2 1   
     2     2     3 1   
     3     2     4 1   
     4     4     5 1   
     5     4    46 1   
     6     4    47 1   
     7     5     6 1   
     8     5    48 1   
     9     5    49 1   
    10     6     7 1   
    11     6    10 1   
    12     6    50 1   
    13     7     8 1   
    14     7     9 2   
    15     8    51 1   
    16     8    52 1   
    17    10    11 1   
    18    10    53 1   
    19    11    12 2   
    20    11    13 1   
    21    13    14 1   
    22    13    19 1   
    23    13    54 1   
    24    14    15 1   
    25    14    55 1   
    26    14    56 1   
    27    15    16 1   
    28    15    57 1   
    29    15    58 1   
    30    16    17 1   
    31    16    18 1   
    32    19    20 1   
    33    19    59 1   
    34    20    21 2   
    35    20    22 1   
    36    22    23 1   
    37    22    27 1   
    38    22    60 1   
    39    23    24 1   
    40    23    61 1   
    41    23    62 1   
    42    24    25 1   
    43    24    26 1   
    44    27    28 1   
    45    27    63 1   
    46    27    64 1   
    47    28    29 2   
    48    28    30 1   
    49    29    32 1   
    50    29    65 1   
    51    30    31 1   
    52    31    32 2   
    53    32    33 1   
    54    33    34 ar  
    55    33    36 ar  
    56    34    35 ar  
    57    34    66 1   
    58    35    38 ar  
    59    35    67 1   
    60    36    37 ar  
    61    36    68 1   
    62    37    38 ar  
    63    37    69 1   
    64    38    39 1   
    65    39    40 ar  
    66    39    41 ar  
    67    40    44 ar  
    68    40    70 1   
    69    41    42 ar  
    70    41    71 1   
    71    42    43 ar  
    72    42    72 1   
    73    43    44 ar  
    74    43    73 1   
    75    44    45 1   
@<TRIPOS>SUBSTRUCTURE
     1 55L         1 TEMP              0 ****  ****    0 ROOT
