@<TRIPOS>MOLECULE
55L
   73    75     1     0     0
SMALL
No Charge or Current Charge


@<TRIPOS>ATOM
      1 O43         -6.8090     4.5200    -1.4480 o          1 55L      -0.750500
      2 C42         -6.8050     4.4210    -0.2310 c          1 55L       0.718000
      3 O44         -7.0660     5.3470     0.5230 o          1 55L      -0.750500
      4 C41         -6.5260     3.0400     0.3850 c3         1 55L      -0.209400
      5 C40         -7.8500     2.2470     0.5480 c3         1 55L      -0.061400
      6 C29         -7.7100     0.8790     1.2760 c3         1 55L       0.029700
      7 C37         -9.0880     0.1720     1.4610 c          1 55L       0.589100
      8 N39        -10.0210     0.8400     2.1810 nt         1 55L      -0.619000
      9 O38         -9.3600    -0.9230     0.9920 o          1 55L      -0.587100
     10 N28         -6.7610    -0.0230     0.5810 ns         1 55L      -0.477900
     11 C27         -5.4330    -0.1970     0.9130 c          1 55L       0.590100
     12 O36         -4.9160     0.3920     1.8560 o          1 55L      -0.650100
     13 C26         -4.6540    -1.1940     0.0050 c3         1 55L       0.032700
     14 C31         -5.1200    -2.6570     0.2470 c3         1 55L      -0.057400
     15 C32         -4.4440    -3.7160    -0.6650 c3         1 55L      -0.215400
     16 C33         -5.0680    -5.0980    -0.4290 c          1 55L       0.726000
     17 O35         -6.0460    -5.4100    -1.0900 o          1 55L      -0.763000
     18 O34         -4.5950    -5.8040     0.4490 o          1 55L      -0.763000
     19 N25         -3.1960    -1.0460     0.2250 ns         1 55L      -0.473900
     20 C20         -2.2310    -1.0660    -0.7580 c          1 55L       0.650100
     21 O30         -2.5150    -1.1760    -1.9440 o          1 55L      -0.650100
     22 C19         -0.7780    -0.8770    -0.2450 c3         1 55L      -0.095700
     23 C21          0.0770    -2.1860    -0.3390 c3         1 55L      -0.222400
     24 C22          0.4010    -2.6130    -1.7860 c          1 55L       0.712000
     25 O24          1.3980    -2.1490    -2.3160 o          1 55L      -0.723000
     26 O23         -0.3320    -3.4280    -2.3240 o          1 55L      -0.723000
     27 C71         -0.1150     0.3780    -0.8820 c3         1 55L      -0.116700
     28 C9           1.1990     0.7600    -0.2580 cc         1 55L       0.241300
     29 C8           2.4730     0.6830    -0.7170 cd         1 55L      -0.253000
     30 O10          1.2220     1.3140     0.9980 os         1 55L      -0.069700
     31 N11          2.5950     1.5940     1.3500 nc         1 55L      -0.407300
     32 C7           3.3010     1.1980     0.3000 cd         1 55L       0.305500
     33 C6           4.7780     1.3180     0.2610 ca         1 55L      -0.085500
     34 C1           5.4800     1.9870     1.2890 ca         1 55L      -0.088000
     35 C2           6.8810     2.0890     1.2560 ca         1 55L      -0.105500
     36 C5           5.5230     0.7430    -0.7910 ca         1 55L      -0.088000
     37 C4           6.9240     0.8450    -0.8200 ca         1 55L      -0.105500
     38 C3           7.6350     1.5220     0.2000 cp         1 55L      -0.069000
     39 C12          9.1290     1.6300     0.1670 cp         1 55L       0.005000
     40 C17          9.9280     0.5790    -0.3480 ca         1 55L      -0.096000
     41 C13          9.7910     2.7880     0.6510 ca         1 55L      -0.106000
     42 C14         11.1930     2.8910     0.6200 ca         1 55L      -0.110000
     43 C15         11.9630     1.8360     0.1050 ca         1 55L      -0.121000
     44 C16         11.3290     0.6810    -0.3780 ca         1 55L       0.120000
     45 Cl          12.2920    -0.6430    -1.0190 cl         1 55L      -0.221000
     46 H2          -5.8930     2.4490    -0.2880 hc         1 55L       0.026700
     47 H3          -6.1150     3.1510     1.3960 hc         1 55L       0.026700
     48 H4          -8.5590     2.8740     1.1020 hc         1 55L       0.048200
     49 H5          -8.2920     2.0810    -0.4430 hc         1 55L       0.048200
     50 H6          -7.3320     1.0710     2.2880 h1         1 55L       0.055700
     51 H7         -10.9280     0.4200     2.3240 hn         1 55L       0.294000
     52 H8          -9.8060     1.7440     2.5760 hn         1 55L       0.294000
     53 H9          -7.1150    -0.5780    -0.1910 hn         1 55L       0.331500
     54 H10         -4.8860    -0.9170    -1.0320 h1         1 55L       0.079700
     55 H11         -4.9400    -2.9210     1.2970 hc         1 55L       0.050200
     56 H12         -6.2050    -2.7120     0.0960 hc         1 55L       0.050200
     57 H13         -4.6280    -3.3910    -1.6960 hc         1 55L       0.047700
     58 H14         -3.3840    -3.7340    -0.3870 hc         1 55L       0.047700
     59 H16         -2.8730    -0.8940     1.1740 hn         1 55L       0.326500
     60 H17         -0.8560    -0.6750     0.8310 hc         1 55L       0.026700
     61 H18          1.0100    -1.9570     0.1890 hc         1 55L       0.022700
     62 H19         -0.5160    -2.9640     0.1580 hc         1 55L       0.022700
     63 H21          0.0210     0.2220    -1.9590 hc         1 55L       0.091200
     64 H22         -0.8010     1.2280    -0.7880 hc         1 55L       0.091200
     65 H23          2.7740     0.2960    -1.6810 ha         1 55L       0.165000
     66 H24          4.9430     2.4360     2.1230 ha         1 55L       0.136000
     67 H25          7.3870     2.6030     2.0690 ha         1 55L       0.106000
     68 H26          5.0240     0.2100    -1.5970 ha         1 55L       0.136000
     69 H27          7.4620     0.4030    -1.6550 ha         1 55L       0.106000
     70 H28          9.4620    -0.3310    -0.7150 ha         1 55L       0.140000
     71 H29          9.2120     3.6210     1.0410 ha         1 55L       0.120000
     72 H30         11.6810     3.7890     0.9930 ha         1 55L       0.106000
     73 H31         13.0470     1.9120     0.0800 ha         1 55L       0.117000
@<TRIPOS>BOND
     1     1     2 1   
     2     2     3 1   
     3     2     4 1   
     4     4     5 1   
     5     4    46 1   
     6     4    47 1   
     7     5     6 1   
     8     5    48 1   
     9     5    49 1   
    10     6     7 1   
    11     6    10 1   
    12     6    50 1   
    13     7     8 1   
    14     7     9 2   
    15     8    51 1   
    16     8    52 1   
    17    10    11 1   
    18    10    53 1   
    19    11    12 2   
    20    11    13 1   
    21    13    14 1   
    22    13    19 1   
    23    13    54 1   
    24    14    15 1   
    25    14    55 1   
    26    14    56 1   
    27    15    16 1   
    28    15    57 1   
    29    15    58 1   
    30    16    17 1   
    31    16    18 1   
    32    19    20 1   
    33    19    59 1   
    34    20    21 2   
    35    20    22 1   
    36    22    23 1   
    37    22    27 1   
    38    22    60 1   
    39    23    24 1   
    40    23    61 1   
    41    23    62 1   
    42    24    25 1   
    43    24    26 1   
    44    27    28 1   
    45    27    63 1   
    46    27    64 1   
    47    28    29 2   
    48    28    30 1   
    49    29    32 1   
    50    29    65 1   
    51    30    31 1   
    52    31    32 2   
    53    32    33 1   
    54    33    34 ar  
    55    33    36 ar  
    56    34    35 ar  
    57    34    66 1   
    58    35    38 ar  
    59    35    67 1   
    60    36    37 ar  
    61    36    68 1   
    62    37    38 ar  
    63    37    69 1   
    64    38    39 1   
    65    39    40 ar  
    66    39    41 ar  
    67    40    44 ar  
    68    40    70 1   
    69    41    42 ar  
    70    41    71 1   
    71    42    43 ar  
    72    42    72 1   
    73    43    44 ar  
    74    43    73 1   
    75    44    45 1   
@<TRIPOS>SUBSTRUCTURE
     1 55L         1 TEMP              0 ****  ****    0 ROOT
