@<TRIPOS>MOLECULE
55M
   49    52     1     0     0
SMALL
abcg2


@<TRIPOS>ATOM
      1 C1           1.4840    -2.4250    -0.2100 ca         1 55M      -0.293000
      2 C2           0.4230    -3.2810     0.0730 ca         1 55M       0.152400
      3 C3          -0.8680    -2.7560     0.1900 ca         1 55M      -0.142000
      4 C11          3.3680     3.3000    -0.4640 c5         1 55M       0.106000
      5 C13          4.7490     2.6700     1.3300 c          1 55M       0.561000
      6 C14          3.9460     1.4430     0.9470 c5         1 55M      -0.164400
      7 C15          3.4170     1.7650    -0.4500 c5         1 55M      -0.085700
      8 C17          2.0750     1.1390    -0.7810 c3         1 55M       0.193300
      9 C19          1.6010     1.4760    -2.1820 c3         1 55M      -0.117100
     10 C20         -2.5100     0.5360    -0.4550 ca         1 55M      -0.134000
     11 C21         -3.7280     1.1840    -0.4030 ca         1 55M       0.100100
     12 C22         -4.8190     0.5710     0.2510 ca         1 55M       0.127100
     13 C23         -4.6410    -0.6740     0.8320 ca         1 55M      -0.181000
     14 C24         -3.4100    -1.3190     0.7670 ca         1 55M      -0.085000
     15 C27         -2.9300     3.0510    -1.6180 c3         1 55M       0.146900
     16 C28         -7.1010     0.6880     0.8650 c3         1 55M       0.144900
     17 C4          -1.0180    -1.3920     0.0260 cp         1 55M       0.459500
     18 N5           0.0220    -0.5810    -0.2540 nb         1 55M      -0.777000
     19 C6           1.2290    -1.0590    -0.3730 ca         1 55M       0.652300
     20 C7          -2.3350    -0.7300     0.1210 cp         1 55M      -0.151500
     21 S8           2.9580    -3.3070    -0.3060 ss         1 55M       0.104800
     22 C9           2.0470    -4.7420     0.0330 cc         1 55M       0.384100
     23 N10          0.7790    -4.6010     0.2040 nd         1 55M      -0.529100
     24 N12          4.4050     3.6520     0.4790 ns         1 55M      -0.518900
     25 O16          5.5450     2.7610     2.2490 o          1 55M      -0.547000
     26 O18          2.2690    -0.2780    -0.6410 os         1 55M      -0.466300
     27 O26         -3.9800     2.3910    -0.9410 os         1 55M      -0.322100
     28 H1          -1.7060    -3.4120     0.3800 ha         1 55M       0.145000
     29 H2           3.5730     3.7170    -1.4490 h1         1 55M       0.045700
     30 H3           2.3910     3.6750    -0.1350 h1         1 55M       0.045700
     31 H4           4.5530     0.5400     0.9940 hc         1 55M       0.082700
     32 H5           3.1340     1.3330     1.6740 hc         1 55M       0.082700
     33 H6           4.1550     1.4410    -1.1920 hc         1 55M       0.075700
     34 H7           1.3330     1.4700    -0.0470 h1         1 55M       0.071700
     35 H8           0.6610     0.9770    -2.4170 hc         1 55M       0.049367
     36 H9           1.4310     2.5490    -2.2760 hc         1 55M       0.049367
     37 H10          2.3430     1.1880    -2.9270 hc         1 55M       0.049367
     38 H11         -1.6660     0.9930    -0.9520 ha         1 55M       0.135000
     39 H12         -5.4540    -1.1620     1.3520 ha         1 55M       0.121000
     40 H13         -3.3080    -2.2800     1.2530 ha         1 55M       0.117000
     41 H14         -2.0830     3.2580    -0.9590 h1         1 55M       0.039033
     42 H15         -2.5760     2.4780    -2.4790 h1         1 55M       0.039033
     43 H16         -3.3370     3.9960    -1.9710 h1         1 55M       0.039033
     44 H17         -7.3680    -0.2650     0.4020 h1         1 55M       0.041033
     45 H18         -6.9520     0.5290     1.9370 h1         1 55M       0.041033
     46 H19         -7.9190     1.3890     0.7260 h1         1 55M       0.041033
     47 H20          2.5540    -5.6960     0.0910 h5         1 55M       0.060800
     48 H21          4.7250     4.6010     0.5990 hn         1 55M       0.328500
     49 O25         -5.9660     1.2700     0.2540 os         1 55M      -0.319100
@<TRIPOS>BOND
     1     1     2 ar  
     2     1    19 ar  
     3     1    21 1   
     4     2     3 ar  
     5     2    23 1   
     6     3    17 ar  
     7     3    28 1   
     8     4     7 1   
     9     4    24 1   
    10     4    29 1   
    11     4    30 1   
    12     5     6 1   
    13     5    24 1   
    14     5    25 2   
    15     6     7 1   
    16     6    31 1   
    17     6    32 1   
    18     7     8 1   
    19     7    33 1   
    20     8     9 1   
    21     8    26 1   
    22     8    34 1   
    23     9    35 1   
    24     9    36 1   
    25     9    37 1   
    26    10    11 ar  
    27    10    20 ar  
    28    10    38 1   
    29    11    12 ar  
    30    11    27 1   
    31    12    13 ar  
    32    12    49 1   
    33    13    14 ar  
    34    13    39 1   
    35    14    20 ar  
    36    14    40 1   
    37    15    27 1   
    38    15    41 1   
    39    15    42 1   
    40    15    43 1   
    41    16    44 1   
    42    16    45 1   
    43    16    46 1   
    44    16    49 1   
    45    17    18 ar  
    46    17    20 1   
    47    18    19 ar  
    48    19    26 1   
    49    21    22 1   
    50    22    23 2   
    51    22    47 1   
    52    24    48 1   
@<TRIPOS>SUBSTRUCTURE
     1 55M         1 TEMP              0 ****  ****    0 ROOT
