@<TRIPOS>MOLECULE
55M
   49    52     1     0     0
SMALL
No Charge or Current Charge


@<TRIPOS>ATOM
      1 C1           1.4470    -2.4470    -0.1760 ca         1 55M      -0.293000
      2 C2           0.3970    -3.3110    -0.0150 ca         1 55M       0.152400
      3 C3          -0.8910    -2.7850     0.0760 ca         1 55M      -0.142000
      4 C11          3.5870     3.3660    -0.4940 c5         1 55M       0.106000
      5 C13          5.0090     2.7670     1.3190 c          1 55M       0.561000
      6 C14          3.9380     1.6970     1.1750 c5         1 55M      -0.164400
      7 C15          3.5480     1.8130    -0.3240 c5         1 55M      -0.085700
      8 C17          2.1990     1.1530    -0.7070 c3         1 55M       0.193300
      9 C19          1.8460     1.2910    -2.2060 c3         1 55M      -0.117100
     10 C20         -2.6520     0.5660    -0.4650 ca         1 55M      -0.134000
     11 C21         -3.9200     1.1860    -0.3940 ca         1 55M       0.100100
     12 C22         -4.9900     0.5160     0.2430 ca         1 55M       0.127100
     13 C23         -4.7760    -0.7620     0.8010 ca         1 55M      -0.181000
     14 C24         -3.5120    -1.3680     0.7240 ca         1 55M      -0.085000
     15 C27         -3.1270     3.2040    -1.5950 c3         1 55M       0.146900
     16 C28         -7.3700     0.5360     0.9290 c3         1 55M       0.144900
     17 C4          -1.0610    -1.3790     0.0060 cp         1 55M       0.459500
     18 N5          -0.0030    -0.5500    -0.1550 nb         1 55M      -0.777000
     19 C6           1.2360    -1.0700    -0.2560 ca         1 55M       0.652300
     20 C7          -2.4180    -0.7250     0.0880 cp         1 55M      -0.151500
     21 S8           2.9900    -3.2790    -0.2730 ss         1 55M       0.104800
     22 C9           2.0370    -4.7680    -0.0830 cc         1 55M       0.384100
     23 N10          0.7020    -4.6630     0.0410 nd         1 55M      -0.529100
     24 N12          4.6750     3.7370     0.4150 ns         1 55M      -0.518900
     25 O16          6.0910     2.7160     1.8790 o          1 55M      -0.547000
     26 O18          2.3290    -0.2490    -0.4040 os         1 55M      -0.466300
     27 O26         -4.1520     2.4420    -0.9340 os         1 55M      -0.322100
     28 H1          -1.7400    -3.4490     0.1820 ha         1 55M       0.145000
     29 H2           3.7870     3.6590    -1.5340 h1         1 55M       0.045700
     30 H3           2.6410     3.8300    -0.1830 h1         1 55M       0.045700
     31 H4           4.2980     0.7140     1.4960 hc         1 55M       0.082700
     32 H5           3.0770     1.9980     1.7810 hc         1 55M       0.082700
     33 H6           4.3230     1.3530    -0.9480 hc         1 55M       0.075700
     34 H7           1.4090     1.6180    -0.1000 h1         1 55M       0.071700
     35 H8           0.8850     0.8140    -2.4310 hc         1 55M       0.049367
     36 H9           1.7650     2.3470    -2.4880 hc         1 55M       0.049367
     37 H10          2.6170     0.8260    -2.8310 hc         1 55M       0.049367
     38 H11         -1.8290     1.0740    -0.9590 ha         1 55M       0.135000
     39 H12         -5.5750    -1.3000     1.3020 ha         1 55M       0.121000
     40 H13         -3.3830    -2.3460     1.1830 ha         1 55M       0.117000
     41 H14         -2.2930     3.4110    -0.9120 h1         1 55M       0.039033
     42 H15         -2.7410     2.6630    -2.4690 h1         1 55M       0.039033
     43 H16         -3.5300     4.1640    -1.9400 h1         1 55M       0.039033
     44 H17         -7.6280    -0.4110     0.4370 h1         1 55M       0.041033
     45 H18         -7.1750     0.3410     1.9910 h1         1 55M       0.041033
     46 H19         -8.2380     1.2020     0.8590 h1         1 55M       0.041033
     47 H20          2.5670    -5.7120    -0.0750 h5         1 55M       0.060800
     48 H21          5.3270     4.5000     0.2680 hn         1 55M       0.328500
     49 O25         -6.2260     1.1420     0.3010 os         1 55M      -0.319100
@<TRIPOS>BOND
     1     1     2 ar  
     2     1    19 ar  
     3     1    21 1   
     4     2     3 ar  
     5     2    23 1   
     6     3    17 ar  
     7     3    28 1   
     8     4     7 1   
     9     4    24 1   
    10     4    29 1   
    11     4    30 1   
    12     5     6 1   
    13     5    24 1   
    14     5    25 2   
    15     6     7 1   
    16     6    31 1   
    17     6    32 1   
    18     7     8 1   
    19     7    33 1   
    20     8     9 1   
    21     8    26 1   
    22     8    34 1   
    23     9    35 1   
    24     9    36 1   
    25     9    37 1   
    26    10    11 ar  
    27    10    20 ar  
    28    10    38 1   
    29    11    12 ar  
    30    11    27 1   
    31    12    13 ar  
    32    12    49 1   
    33    13    14 ar  
    34    13    39 1   
    35    14    20 ar  
    36    14    40 1   
    37    15    27 1   
    38    15    41 1   
    39    15    42 1   
    40    15    43 1   
    41    16    44 1   
    42    16    45 1   
    43    16    46 1   
    44    16    49 1   
    45    17    18 ar  
    46    17    20 1   
    47    18    19 ar  
    48    19    26 1   
    49    21    22 1   
    50    22    23 2   
    51    22    47 1   
    52    24    48 1   
@<TRIPOS>SUBSTRUCTURE
     1 55M         1 TEMP              0 ****  ****    0 ROOT
