@<TRIPOS>MOLECULE
55N
   33    32     1     0     0
SMALL
abcg2


@<TRIPOS>ATOM
      1 NAP         -1.7160     0.3630    -1.4290 n7         1 55N      -0.888400
      2 CAU         -1.9510    -0.9070    -2.0840 c3         1 55N       0.151100
      3 CAQ         -1.6300     0.3310     0.0260 c3         1 55N       0.181500
      4 CAV         -3.0050     0.0270     0.6470 c3         1 55N      -0.055700
      5 CAX         -2.9720     0.1220     2.1720 c3         1 55N      -0.080600
      6 CAW         -4.0820     0.9590     0.1000 c3         1 55N      -0.080600
      7 CAR         -0.5450    -0.6160     0.5710 c3         1 55N      -0.096400
      8 CAS          0.8230    -0.4540    -0.0770 c3         1 55N       0.023300
      9 OAZ          1.2380     0.8930     0.1730 os         1 55N      -0.440100
     10 CBB          2.3050     1.3430    -0.4630 c          1 55N       0.610100
     11 OBA          2.8770     0.7360    -1.3370 o          1 55N      -0.510000
     12 CBC          2.7120     2.7140    -0.0030 c3         1 55N      -0.154100
     13 CAY          1.8300    -1.4720     0.5030 c          1 55N       0.718000
     14 H25         -1.9520    -0.7550    -3.1640 h1         1 55N       0.024700
     15 H26         -1.2150    -1.6930    -1.8660 h1         1 55N       0.024700
     16 H27         -2.9330    -1.3010    -1.8170 h1         1 55N       0.024700
     17 H28         -1.3710     1.3530     0.3290 h1         1 55N       0.052700
     18 H29         -3.2850    -1.0020     0.3910 hc         1 55N       0.040700
     19 H30         -2.6180     1.1040     2.4960 hc         1 55N       0.026200
     20 H31         -3.9730    -0.0190     2.5830 hc         1 55N       0.026200
     21 H32         -2.3300    -0.6310     2.6280 hc         1 55N       0.026200
     22 H33         -4.1770     0.8830    -0.9820 hc         1 55N       0.026200
     23 H34         -5.0520     0.7260     0.5420 hc         1 55N       0.026200
     24 H35         -3.8530     2.0010     0.3400 hc         1 55N       0.026200
     25 H36         -0.4380    -0.4670     1.6490 hc         1 55N       0.059200
     26 H37         -0.8500    -1.6560     0.4340 hc         1 55N       0.059200
     27 H38          0.7480    -0.6200    -1.1560 h1         1 55N       0.040700
     28 H39          2.0640     3.1120     0.7740 hc         1 55N       0.049700
     29 H40          3.7330     2.6770     0.3770 hc         1 55N       0.049700
     30 H41          2.7100     3.3980    -0.8520 hc         1 55N       0.049700
     31 H1          -0.8820     0.7900    -1.8100 hn         1 55N       0.420000
     32 OXT          1.6240    -2.6500     0.1550 o          1 55N      -0.716500
     33 O            2.7110    -1.0430     1.2660 o          1 55N      -0.716500
@<TRIPOS>BOND
     1     1     2 1   
     2     1     3 1   
     3     1    31 1   
     4     2    14 1   
     5     2    15 1   
     6     2    16 1   
     7     3     4 1   
     8     3     7 1   
     9     3    17 1   
    10     4     5 1   
    11     4     6 1   
    12     4    18 1   
    13     5    19 1   
    14     5    20 1   
    15     5    21 1   
    16     6    22 1   
    17     6    23 1   
    18     6    24 1   
    19     7     8 1   
    20     7    25 1   
    21     7    26 1   
    22     8     9 1   
    23     8    13 1   
    24     8    27 1   
    25     9    10 1   
    26    10    11 2   
    27    10    12 1   
    28    12    28 1   
    29    12    29 1   
    30    12    30 1   
    31    13    32 1   
    32    13    33 1   
@<TRIPOS>SUBSTRUCTURE
     1 55N         1 TEMP              0 ****  ****    0 ROOT
