@<TRIPOS>MOLECULE
55N
   33    32     1     0     0
SMALL
No Charge or Current Charge


@<TRIPOS>ATOM
      1 NAP         -1.6810     0.3060    -1.4440 n7         1 55N      -0.888400
      2 CAU         -2.0820    -0.9460    -2.1260 c3         1 55N       0.151100
      3 CAQ         -1.6100     0.3040     0.0440 c3         1 55N       0.181500
      4 CAV         -3.0190     0.0600     0.6960 c3         1 55N      -0.055700
      5 CAX         -2.9830     0.1220     2.2450 c3         1 55N      -0.080600
      6 CAW         -4.0960     1.0450     0.1660 c3         1 55N      -0.080600
      7 CAR         -0.5050    -0.6800     0.5360 c3         1 55N      -0.096400
      8 CAS          0.8990    -0.4830    -0.1000 c3         1 55N       0.023300
      9 OAZ          1.2990     0.8900     0.1720 os         1 55N      -0.440100
     10 CBB          2.3960     1.3980    -0.4800 c          1 55N       0.610100
     11 OBA          3.0110     0.8190    -1.3660 o          1 55N      -0.510000
     12 CBC          2.6790     2.8360    -0.0580 c3         1 55N      -0.154100
     13 CAY          1.9180    -1.5490     0.4440 c          1 55N       0.718000
     14 H25         -2.1010    -0.7960    -3.2130 h1         1 55N       0.024700
     15 H26         -1.3770    -1.7600    -1.9130 h1         1 55N       0.024700
     16 H27         -3.0850    -1.2670    -1.8170 h1         1 55N       0.024700
     17 H28         -1.2980     1.3080     0.3640 h1         1 55N       0.052700
     18 H29         -3.3480    -0.9520     0.4330 hc         1 55N       0.040700
     19 H30         -2.5560     1.0730     2.5880 hc         1 55N       0.026200
     20 H31         -3.9940     0.0330     2.6610 hc         1 55N       0.026200
     21 H32         -2.3900    -0.6980     2.6640 hc         1 55N       0.026200
     22 H33         -4.2470     0.9330    -0.9140 hc         1 55N       0.026200
     23 H34         -5.0630     0.8600     0.6500 hc         1 55N       0.026200
     24 H35         -3.8070     2.0830     0.3670 hc         1 55N       0.026200
     25 H36         -0.3850    -0.5760     1.6200 hc         1 55N       0.059200
     26 H37         -0.8350    -1.7110     0.3650 hc         1 55N       0.059200
     27 H38          0.8190    -0.6460    -1.1820 h1         1 55N       0.040700
     28 H39          1.7580     3.4220    -0.1510 hc         1 55N       0.049700
     29 H40          2.8590     2.8590     1.0220 hc         1 55N       0.049700
     30 H41          3.5040     3.2880    -0.6200 hc         1 55N       0.049700
     31 H1          -0.7530     0.5720    -1.7910 hn         1 55N       0.420000
     32 OXT          1.8180    -2.6970     0.0300 o          1 55N      -0.716500
     33 O            2.7960    -1.2020     1.2270 o          1 55N      -0.716500
@<TRIPOS>BOND
     1     1     2 1   
     2     1     3 1   
     3     1    31 1   
     4     2    14 1   
     5     2    15 1   
     6     2    16 1   
     7     3     4 1   
     8     3     7 1   
     9     3    17 1   
    10     4     5 1   
    11     4     6 1   
    12     4    18 1   
    13     5    19 1   
    14     5    20 1   
    15     5    21 1   
    16     6    22 1   
    17     6    23 1   
    18     6    24 1   
    19     7     8 1   
    20     7    25 1   
    21     7    26 1   
    22     8     9 1   
    23     8    13 1   
    24     8    27 1   
    25     9    10 1   
    26    10    11 2   
    27    10    12 1   
    28    12    28 1   
    29    12    29 1   
    30    12    30 1   
    31    13    32 1   
    32    13    33 1   
@<TRIPOS>SUBSTRUCTURE
     1 55N         1 TEMP              0 ****  ****    0 ROOT
