@<TRIPOS>MOLECULE
55P
   31    31     1     0     0
SMALL
No Charge or Current Charge


@<TRIPOS>ATOM
      1 NBI         -0.1220     0.6420     1.4000 n8         1 55P      -0.981200
      2 CBJ          0.1080     0.0460     0.0690 c3         1 55P       0.157500
      3 CBL          1.5560     0.3110    -0.4350 c3         1 55P      -0.042400
      4 CBT          2.7030    -0.3030     0.4240 c3         1 55P      -0.189700
      5 CBX          2.6810    -1.8520     0.4490 c3         1 55P      -0.059100
      6 CBU          4.0800     0.2230    -0.0450 c          1 55P       0.718000
      7 OXT          4.7450     0.8770     0.7450 o          1 55P      -0.741500
      8 O            4.4500    -0.0300    -1.1820 o          1 55P      -0.741500
      9 CBM         -0.9580     0.5680    -0.9260 c3         1 55P      -0.084100
     10 CBN         -2.3930     0.2870    -0.4880 ca         1 55P      -0.062300
     11 CBO         -2.8840    -1.0340    -0.4760 ca         1 55P      -0.114000
     12 CBP         -4.2060    -1.2970    -0.0750 ca         1 55P      -0.113000
     13 CBQ         -5.0460    -0.2410     0.3150 ca         1 55P      -0.126000
     14 CBR         -4.5640     1.0780     0.3030 ca         1 55P      -0.113000
     15 CBS         -3.2430     1.3420    -0.0980 ca         1 55P      -0.114000
     16 H43          0.0580     1.6490     1.3440 hn         1 55P       0.379500
     17 H44         -0.0360    -1.0400     0.1600 h1         1 55P       0.052700
     18 H45          1.6450    -0.0730    -1.4590 hc         1 55P       0.039200
     19 H46          1.7100     1.3950    -0.5030 hc         1 55P       0.039200
     20 H47          2.5690     0.0370     1.4580 hc         1 55P       0.049700
     21 H48          2.7430    -2.2630    -0.5660 hc         1 55P       0.009700
     22 H49          3.5310    -2.2360     1.0260 hc         1 55P       0.009700
     23 H50          1.7640    -2.2270     0.9170 hc         1 55P       0.009700
     24 H52         -0.8090     1.6440    -1.0840 hc         1 55P       0.051700
     25 H53         -0.7850     0.0980    -1.9030 hc         1 55P       0.051700
     26 H54         -2.2410    -1.8580    -0.7790 ha         1 55P       0.112500
     27 H55         -4.5780    -2.3200    -0.0680 ha         1 55P       0.103000
     28 H56         -6.0680    -0.4450     0.6260 ha         1 55P       0.101000
     29 H57         -5.2140     1.8970     0.6040 ha         1 55P       0.103000
     30 H58         -2.8800     2.3670    -0.1050 ha         1 55P       0.112500
     31 H2          -1.1270     0.5880     1.5980 hn         1 55P       0.379500
@<TRIPOS>BOND
     1     1     2 1   
     2     1    16 1   
     3     1    31 1   
     4     2     3 1   
     5     2     9 1   
     6     2    17 1   
     7     3     4 1   
     8     3    18 1   
     9     3    19 1   
    10     4     5 1   
    11     4     6 1   
    12     4    20 1   
    13     5    21 1   
    14     5    22 1   
    15     5    23 1   
    16     6     7 1   
    17     6     8 1   
    18     9    10 1   
    19     9    24 1   
    20     9    25 1   
    21    10    11 ar  
    22    10    15 ar  
    23    11    12 ar  
    24    11    26 1   
    25    12    13 ar  
    26    12    27 1   
    27    13    14 ar  
    28    13    28 1   
    29    14    15 ar  
    30    14    29 1   
    31    15    30 1   
@<TRIPOS>SUBSTRUCTURE
     1 55P         1 TEMP              0 ****  ****    0 ROOT
