@<TRIPOS>MOLECULE
55P
   31    31     1     0     0
SMALL
bcc


@<TRIPOS>ATOM
      1 NBI         -0.0920     0.8640     1.2750 n8         1 55P      -0.870800
      2 CBJ          0.0880     0.0830     0.0610 c3         1 55P       0.157500
      3 CBL          1.5030     0.2860    -0.4750 c3         1 55P      -0.042400
      4 CBT          2.6080    -0.2270     0.4430 c3         1 55P      -0.189700
      5 CBX          2.6210    -1.7550     0.5140 c3         1 55P      -0.059100
      6 CBU          4.0180     0.2720     0.0550 c          1 55P       0.928600
      7 OXT          4.9400    -0.0310     0.8430 o          1 55P      -0.846800
      8 O            4.1490     0.9210    -1.0030 o          1 55P      -0.846800
      9 CBM         -0.9450     0.3900    -1.0450 c3         1 55P      -0.084100
     10 CBN         -2.3570     0.1870    -0.5810 ca         1 55P      -0.062300
     11 CBO         -2.9240    -1.0880    -0.5650 ca         1 55P      -0.132000
     12 CBP         -4.2070    -1.2940    -0.0790 ca         1 55P      -0.131000
     13 CBQ         -4.9520    -0.2250     0.4030 ca         1 55P      -0.144000
     14 CBR         -4.4030     1.0500     0.3910 ca         1 55P      -0.131000
     15 CBS         -3.1170     1.2500    -0.0960 ca         1 55P      -0.132000
     16 H43         -0.0420     1.8530     1.0510 hn         1 55P       0.324300
     17 H44         -0.0460    -0.9690     0.3370 h1         1 55P       0.052700
     18 H45          1.5870    -0.1950    -1.4550 hc         1 55P       0.039200
     19 H46          1.6420     1.3570    -0.6580 hc         1 55P       0.039200
     20 H47          2.4040     0.1450     1.4530 hc         1 55P       0.049700
     21 H48          2.8450    -2.1920    -0.4640 hc         1 55P       0.009700
     22 H49          3.3770    -2.1060     1.2150 hc         1 55P       0.009700
     23 H50          1.6610    -2.1600     0.8380 hc         1 55P       0.009700
     24 H52         -0.8040     1.4220    -1.3820 hc         1 55P       0.051700
     25 H53         -0.7390    -0.2560    -1.9030 hc         1 55P       0.051700
     26 H54         -2.3530    -1.9300    -0.9400 ha         1 55P       0.130500
     27 H55         -4.6270    -2.2920    -0.0760 ha         1 55P       0.121000
     28 H56         -5.9540    -0.3860     0.7820 ha         1 55P       0.119000
     29 H57         -4.9750     1.8920     0.7590 ha         1 55P       0.121000
     30 H58         -2.6990     2.2500    -0.1060 ha         1 55P       0.130500
     31 H2          -1.0190     0.7130     1.6540 hn         1 55P       0.324300
@<TRIPOS>BOND
     1     1     2 1   
     2     1    16 1   
     3     1    31 1   
     4     2     3 1   
     5     2     9 1   
     6     2    17 1   
     7     3     4 1   
     8     3    18 1   
     9     3    19 1   
    10     4     5 1   
    11     4     6 1   
    12     4    20 1   
    13     5    21 1   
    14     5    22 1   
    15     5    23 1   
    16     6     7 1   
    17     6     8 1   
    18     9    10 1   
    19     9    24 1   
    20     9    25 1   
    21    10    11 ar  
    22    10    15 ar  
    23    11    12 ar  
    24    11    26 1   
    25    12    13 ar  
    26    12    27 1   
    27    13    14 ar  
    28    13    28 1   
    29    14    15 ar  
    30    14    29 1   
    31    15    30 1   
@<TRIPOS>SUBSTRUCTURE
     1 55P         1 TEMP              0 ****  ****    0 ROOT
