@<TRIPOS>MOLECULE
55Q
  107   109     1     0     0
SMALL
No Charge or Current Charge


@<TRIPOS>ATOM
      1 N           -5.6940     3.7800     1.1980 n3         1 55Q      -0.695600
      2 CAG         -6.9440     3.0640     1.5500 c3         1 55Q       0.134100
      3 CA          -4.7730     2.9990     0.2780 c6         1 55Q       0.109500
      4 C           -4.4980     1.4910     0.6730 c          1 55Q       0.599100
      5 O           -5.3590     0.6230     0.5900 o          1 55Q      -0.602100
      6 CB          -3.4470     3.8080     0.0820 c6         1 55Q      -0.072400
      7 CAF         -3.7190     5.2220    -0.4760 c6         1 55Q      -0.075400
      8 CAA         -4.7010     5.9690     0.4470 c6         1 55Q      -0.076400
      9 CAB         -5.9880     5.1410     0.6650 c6         1 55Q       0.165800
     10 NAI         -3.2260     1.1750     1.1110 ns         1 55Q      -0.489900
     11 CAJ         -2.7640    -0.1950     1.4260 c3         1 55Q       0.042700
     12 CAO         -2.4740    -0.9560     0.0770 c          1 55Q       0.601100
     13 OAT         -1.9970    -0.3350    -0.8660 o          1 55Q      -0.610100
     14 CAK         -1.5370    -0.1100     2.3990 c3         1 55Q      -0.063700
     15 CAL         -1.2160    -1.4290     3.1540 c3         1 55Q      -0.081400
     16 CAN         -0.2650     0.4540     1.7140 c3         1 55Q      -0.102100
     17 CAM         -2.2810    -1.8460     4.1930 c3         1 55Q      -0.092100
     18 NAP         -2.7260    -2.3570    -0.0330 n          1 55Q      -0.402800
     19 CAU         -3.5390    -3.0730     0.9820 c3         1 55Q       0.088300
     20 CAQ         -2.3210    -3.1580    -1.2360 c3         1 55Q       0.132700
     21 CAV         -3.3230    -3.1180    -2.4430 c3         1 55Q      -0.066700
     22 CAX         -4.7480    -3.5860    -2.0600 c3         1 55Q      -0.088100
     23 CAW         -3.3880    -1.7700    -3.2020 c3         1 55Q      -0.088100
     24 CAR         -0.8270    -3.0170    -1.6450 c3         1 55Q      -0.080400
     25 CAS          0.1670    -3.2260    -0.4800 c3         1 55Q       0.144000
     26 OAZ          0.1270    -4.6280    -0.1220 os         1 55Q      -0.462100
     27 CBB          0.6970    -5.0190     1.0620 c          1 55Q       0.585100
     28 OBA          1.2220    -4.2620     1.8640 o          1 55Q      -0.454000
     29 CBC          0.5670    -6.5190     1.2740 c3         1 55Q      -0.155100
     30 CAY          1.5740    -2.7910    -0.8430 cc         1 55Q       0.403700
     31 NBG          2.0390    -1.5900    -0.5380 nd         1 55Q      -0.621000
     32 CBF          3.3060    -1.3990    -1.0960 cd         1 55Q       0.238500
     33 CBH          4.1100    -0.1290    -1.0060 c          1 55Q       0.535600
     34 OBK          5.1990     0.0620    -1.5390 o          1 55Q      -0.613100
     35 CBE          3.7730    -2.4880    -1.8040 cc         1 55Q      -0.199000
     36 SBD          2.6260    -3.8000    -1.8030 ss         1 55Q      -0.045400
     37 NBI          3.4530     0.8290    -0.2620 ns         1 55Q      -0.462900
     38 CBJ          3.7920     2.2520    -0.2040 c3         1 55Q       0.106700
     39 CBL          4.2320     2.6790     1.2220 c3         1 55Q      -0.057400
     40 CBT          5.4980     1.9660     1.7840 c3         1 55Q      -0.192700
     41 CBX          6.7850     2.3110     0.9930 c3         1 55Q      -0.069100
     42 CBU          5.6780     2.2690     3.2910 c          1 55Q       0.719000
     43 OBW          5.6290     1.3330     4.0760 o          1 55Q      -0.739500
     44 OBV          5.8590     3.4260     3.6400 o          1 55Q      -0.739500
     45 CBM          2.5920     3.0870    -0.7180 c3         1 55Q      -0.060100
     46 CBN          2.0300     2.5690    -2.0410 ca         1 55Q      -0.071300
     47 CBO          2.7250     2.7980    -3.2440 ca         1 55Q      -0.103500
     48 CBP          2.2240     2.2960    -4.4590 ca         1 55Q      -0.115000
     49 CBQ          1.0270     1.5610    -4.4760 ca         1 55Q      -0.127000
     50 CBR          0.3300     1.3280    -3.2790 ca         1 55Q      -0.115000
     51 CBS          0.8290     1.8310    -2.0660 ca         1 55Q      -0.103500
     52 H13         -5.2510     2.9300    -0.7110 h1         1 55Q       0.024700
     53 H11         -2.9130     3.8950     1.0380 hc         1 55Q       0.055700
     54 H12         -2.7810     3.2750    -0.6120 hc         1 55Q       0.055700
     55 H10         -2.7780     5.7830    -0.5600 hc         1 55Q       0.038200
     56 H9          -4.1380     5.1500    -1.4890 hc         1 55Q       0.038200
     57 H7          -4.2250     6.1680     1.4170 hc         1 55Q       0.045200
     58 H8          -4.9550     6.9460     0.0150 hc         1 55Q       0.045200
     59 H5          -6.5290     5.0640    -0.2900 h1         1 55Q       0.030700
     60 H6          -6.6400     5.6900     1.3600 h1         1 55Q       0.030700
     61 H1          -7.5070     2.7860     0.6490 h1         1 55Q       0.042700
     62 H2          -6.7320     2.1540     2.1250 h1         1 55Q       0.042700
     63 H3          -7.5910     3.6950     2.1750 h1         1 55Q       0.042700
     64 H14         -2.5560     1.9310     1.1540 hn         1 55Q       0.325500
     65 H15         -3.5890    -0.6900     1.9480 h1         1 55Q       0.069700
     66 H16         -1.8070     0.6160     3.1770 hc         1 55Q       0.051700
     67 H20         -1.0530    -2.2430     2.4400 hc         1 55Q       0.056200
     68 H21         -0.2660    -1.3090     3.6910 hc         1 55Q       0.056200
     69 H17         -0.4650     1.4210     1.2370 hc         1 55Q       0.052367
     70 H18          0.5350     0.6100     2.4480 hc         1 55Q       0.052367
     71 H19          0.1120    -0.2340     0.9500 hc         1 55Q       0.052367
     72 H22         -3.2650    -1.9950     3.7350 hc         1 55Q       0.029700
     73 H23         -1.9890    -2.7840     4.6790 hc         1 55Q       0.029700
     74 H24         -2.3810    -1.0780     4.9700 hc         1 55Q       0.029700
     75 H25         -4.4250    -2.4840     1.2480 h1         1 55Q       0.040033
     76 H26         -3.8850    -4.0380     0.5940 h1         1 55Q       0.040033
     77 H27         -2.9380    -3.2710     1.8750 h1         1 55Q       0.040033
     78 H28         -2.3730    -4.2040    -0.9040 h1         1 55Q       0.042700
     79 H29         -2.9520    -3.8540    -3.1670 hc         1 55Q       0.035700
     80 H30         -5.3810    -3.6640    -2.9520 hc         1 55Q       0.038033
     81 H31         -4.7190    -4.5730    -1.5840 hc         1 55Q       0.038033
     82 H32         -5.2240    -2.8790    -1.3700 hc         1 55Q       0.038033
     83 H33         -2.3920    -1.4290    -3.5040 hc         1 55Q       0.038033
     84 H34         -3.9900    -1.8750    -4.1130 hc         1 55Q       0.038033
     85 H35         -3.8550    -0.9930    -2.5870 hc         1 55Q       0.038033
     86 H36         -0.6000    -3.7430    -2.4350 hc         1 55Q       0.078200
     87 H37         -0.6470    -2.0320    -2.0870 hc         1 55Q       0.078200
     88 H38         -0.1540    -2.6050     0.3640 h1         1 55Q       0.096700
     89 H39          1.0140    -7.0360     0.4180 hc         1 55Q       0.067033
     90 H40          0.9990    -6.8500     2.2250 hc         1 55Q       0.067033
     91 H41         -0.4890    -6.7970     1.1870 hc         1 55Q       0.067033
     92 H42          4.7100    -2.5910    -2.3350 h4         1 55Q       0.177000
     93 H43          2.5600     0.5340     0.1150 hn         1 55Q       0.326500
     94 H44          4.6280     2.4380    -0.8910 h1         1 55Q       0.075700
     95 H45          4.4030     3.7630     1.2300 hc         1 55Q       0.043700
     96 H46          3.3960     2.4960     1.9100 hc         1 55Q       0.043700
     97 H47          5.3440     0.8840     1.6920 hc         1 55Q       0.036700
     98 H48          7.6530     1.8130     1.4410 hc         1 55Q       0.018367
     99 H49          6.7120     1.9810    -0.0490 hc         1 55Q       0.018367
    100 H50          6.9710     3.3920     0.9990 hc         1 55Q       0.018367
    101 H52          1.8040     3.0870     0.0450 hc         1 55Q       0.049700
    102 H53          2.9060     4.1320    -0.8280 hc         1 55Q       0.049700
    103 H54          3.6560     3.3600    -3.2380 ha         1 55Q       0.119500
    104 H55          2.7660     2.4760    -5.3850 ha         1 55Q       0.106000
    105 H56          0.6410     1.1710    -5.4150 ha         1 55Q       0.099000
    106 H57         -0.5950     0.7560    -3.2890 ha         1 55Q       0.106000
    107 H58          0.2840     1.6370    -1.1460 ha         1 55Q       0.119500
@<TRIPOS>BOND
     1     1     2 1   
     2     1     3 1   
     3     1     9 1   
     4     2    61 1   
     5     2    62 1   
     6     2    63 1   
     7     3     4 1   
     8     3     6 1   
     9     3    52 1   
    10     4     5 2   
    11     4    10 1   
    12     6     7 1   
    13     6    53 1   
    14     6    54 1   
    15     7     8 1   
    16     7    55 1   
    17     7    56 1   
    18     8     9 1   
    19     8    57 1   
    20     8    58 1   
    21     9    59 1   
    22     9    60 1   
    23    10    11 1   
    24    10    64 1   
    25    11    12 1   
    26    11    14 1   
    27    11    65 1   
    28    12    13 2   
    29    12    18 1   
    30    14    15 1   
    31    14    16 1   
    32    14    66 1   
    33    15    17 1   
    34    15    67 1   
    35    15    68 1   
    36    16    69 1   
    37    16    70 1   
    38    16    71 1   
    39    17    72 1   
    40    17    73 1   
    41    17    74 1   
    42    18    19 1   
    43    18    20 1   
    44    19    75 1   
    45    19    76 1   
    46    19    77 1   
    47    20    21 1   
    48    20    24 1   
    49    20    78 1   
    50    21    22 1   
    51    21    23 1   
    52    21    79 1   
    53    22    80 1   
    54    22    81 1   
    55    22    82 1   
    56    23    83 1   
    57    23    84 1   
    58    23    85 1   
    59    24    25 1   
    60    24    86 1   
    61    24    87 1   
    62    25    26 1   
    63    25    30 1   
    64    25    88 1   
    65    26    27 1   
    66    27    28 2   
    67    27    29 1   
    68    29    89 1   
    69    29    90 1   
    70    29    91 1   
    71    30    31 2   
    72    30    36 1   
    73    31    32 1   
    74    32    33 1   
    75    32    35 2   
    76    33    34 2   
    77    33    37 1   
    78    35    36 1   
    79    35    92 1   
    80    37    38 1   
    81    37    93 1   
    82    38    39 1   
    83    38    45 1   
    84    38    94 1   
    85    39    40 1   
    86    39    95 1   
    87    39    96 1   
    88    40    41 1   
    89    40    42 1   
    90    40    97 1   
    91    41    98 1   
    92    41    99 1   
    93    41   100 1   
    94    42    43 1   
    95    42    44 1   
    96    45    46 1   
    97    45   101 1   
    98    45   102 1   
    99    46    47 ar  
   100    46    51 ar  
   101    47    48 ar  
   102    47   103 1   
   103    48    49 ar  
   104    48   104 1   
   105    49    50 ar  
   106    49   105 1   
   107    50    51 ar  
   108    50   106 1   
   109    51   107 1   
@<TRIPOS>SUBSTRUCTURE
     1 55Q         1 TEMP              0 ****  ****    0 ROOT
