@<TRIPOS>MOLECULE
55Q
  107   109     1     0     0
SMALL
bcc


@<TRIPOS>ATOM
      1 N           -4.4480     3.2840    -0.4620 n3         1 55Q      -0.695600
      2 CAG         -3.3030     2.9480    -1.2860 c3         1 55Q       0.134100
      3 CA          -4.1860     3.0380     0.9460 c6         1 55Q       0.109500
      4 C           -3.8950     1.5560     1.1650 c          1 55Q       0.666100
      5 O           -4.6970     0.6840     0.8620 o          1 55Q      -0.602100
      6 CB          -5.3860     3.4170     1.8170 c6         1 55Q      -0.072400
      7 CAF         -5.8040     4.8580     1.5790 c6         1 55Q      -0.075400
      8 CAA         -6.0610     5.0730     0.0970 c6         1 55Q      -0.076400
      9 CAB         -4.8420     4.6620    -0.7100 c6         1 55Q       0.165800
     10 NAI         -2.7270     1.2800     1.7610 ns         1 55Q      -0.556900
     11 CAJ         -2.2990    -0.0820     1.9820 c3         1 55Q       0.042700
     12 CAO         -2.2340    -0.7910     0.6150 c          1 55Q       0.668100
     13 OAT         -1.7500    -0.1800    -0.3240 o          1 55Q      -0.610100
     14 CAK         -0.9370    -0.0700     2.7140 c3         1 55Q      -0.063700
     15 CAL         -0.6070    -1.4170     3.3630 c3         1 55Q      -0.081400
     16 CAN          0.2280     0.4200     1.8570 c3         1 55Q      -0.102100
     17 CAM         -1.4550    -1.7370     4.5880 c3         1 55Q      -0.092100
     18 NAP         -2.6710    -2.0670     0.5130 n          1 55Q      -0.469800
     19 CAU         -3.3920    -2.7140     1.6020 c3         1 55Q       0.088300
     20 CAQ         -2.5880    -2.8090    -0.7570 c3         1 55Q       0.132700
     21 CAV         -3.7250    -2.5160    -1.7600 c3         1 55Q      -0.066700
     22 CAX         -5.0960    -2.7020    -1.1170 c3         1 55Q      -0.088100
     23 CAW         -3.6660    -1.1710    -2.4780 c3         1 55Q      -0.088100
     24 CAR         -1.2090    -2.7590    -1.4190 c3         1 55Q      -0.080400
     25 CAS         -0.0750    -3.1600    -0.4860 c3         1 55Q       0.120800
     26 OAZ         -0.1660    -4.5650    -0.2630 os         1 55Q      -0.438900
     27 CBB          0.5030    -5.0780     0.7800 c          1 55Q       0.634100
     28 OBA          1.2000    -4.4100     1.4980 o          1 55Q      -0.503000
     29 CBC          0.2540    -6.5470     0.9160 c3         1 55Q      -0.155100
     30 CAY          1.2490    -2.7950    -1.0750 cc         1 55Q       0.403700
     31 NBG          1.8080    -1.6530    -0.8750 nd         1 55Q      -0.621000
     32 CBF          2.9350    -1.5020    -1.6280 cd         1 55Q       0.303800
     33 CBH          3.6890    -0.2210    -1.5890 c          1 55Q       0.602600
     34 OBK          4.6340    -0.0240    -2.3400 o          1 55Q      -0.613100
     35 CBE          3.2510    -2.5680    -2.4110 cc         1 55Q      -0.137400
     36 SBD          2.0830    -3.8000    -2.2080 ss         1 55Q      -0.190300
     37 NBI          3.2220     0.6450    -0.6800 ns         1 55Q      -0.529900
     38 CBJ          3.6010     2.0390    -0.5840 c3         1 55Q       0.106700
     39 CBL          4.2160     2.3680     0.7770 c3         1 55Q      -0.057400
     40 CBT          5.4580     1.5670     1.1490 c3         1 55Q      -0.192700
     41 CBX          6.6170     1.8040     0.1780 c3         1 55Q      -0.069100
     42 CBU          5.9360     1.8440     2.5930 c          1 55Q       0.929600
     43 OBW          6.8140     1.0720     3.0330 o          1 55Q      -0.844800
     44 OBV          5.4370     2.8090     3.2050 o          1 55Q      -0.844800
     45 CBM          2.3680     2.9240    -0.8330 c3         1 55Q      -0.060100
     46 CBN          1.6420     2.5810    -2.1020 ca         1 55Q      -0.071300
     47 CBO          2.1190     3.0210    -3.3360 ca         1 55Q      -0.121500
     48 CBP          1.4750     2.6710    -4.5140 ca         1 55Q      -0.133000
     49 CBQ          0.3390     1.8710    -4.4770 ca         1 55Q      -0.145000
     50 CBR         -0.1440     1.4260    -3.2540 ca         1 55Q      -0.133000
     51 CBS          0.5040     1.7800    -2.0780 ca         1 55Q      -0.121500
     52 H13         -3.3160     3.6310     1.2890 h1         1 55Q       0.024700
     53 H11         -6.2180     2.7480     1.5820 hc         1 55Q       0.055700
     54 H12         -5.1270     3.2530     2.8650 hc         1 55Q       0.055700
     55 H10         -6.6900     5.0980     2.1710 hc         1 55Q       0.038200
     56 H9          -5.0080     5.5320     1.9140 hc         1 55Q       0.038200
     57 H7          -6.9260     4.4830    -0.2210 hc         1 55Q       0.045200
     58 H8          -6.2920     6.1190    -0.1140 hc         1 55Q       0.045200
     59 H5          -4.0140     5.3600    -0.4880 h1         1 55Q       0.030700
     60 H6          -5.0510     4.7640    -1.7780 h1         1 55Q       0.030700
     61 H1          -2.4110     3.5470    -1.0430 h1         1 55Q       0.042700
     62 H2          -3.0260     1.8980    -1.1880 h1         1 55Q       0.042700
     63 H3          -3.5430     3.1280    -2.3350 h1         1 55Q       0.042700
     64 H14         -2.0510     2.0190     1.8690 hn         1 55Q       0.325500
     65 H15         -3.0280    -0.5560     2.6410 h1         1 55Q       0.069700
     66 H16         -1.0610     0.6500     3.5330 hc         1 55Q       0.051700
     67 H20         -0.6720    -2.2240     2.6270 hc         1 55Q       0.056200
     68 H21          0.4420    -1.3950     3.6670 hc         1 55Q       0.056200
     69 H17          0.0300     1.3870     1.3910 hc         1 55Q       0.052367
     70 H18          1.1090     0.5340     2.4890 hc         1 55Q       0.052367
     71 H19          0.4780    -0.2830     1.0620 hc         1 55Q       0.052367
     72 H22         -2.5240    -1.7550     4.3690 hc         1 55Q       0.029700
     73 H23         -1.1930    -2.7110     5.0020 hc         1 55Q       0.029700
     74 H24         -1.2980    -0.9900     5.3680 hc         1 55Q       0.029700
     75 H25         -4.2840    -2.1570     1.8880 h1         1 55Q       0.040033
     76 H26         -3.7150    -3.6980     1.2790 h1         1 55Q       0.040033
     77 H27         -2.7690    -2.8610     2.4830 h1         1 55Q       0.040033
     78 H28         -2.7410    -3.8510    -0.4660 h1         1 55Q       0.042700
     79 H29         -3.6130    -3.2970    -2.5220 hc         1 55Q       0.035700
     80 H30         -5.8810    -2.6150    -1.8700 hc         1 55Q       0.038033
     81 H31         -5.1990    -3.6830    -0.6490 hc         1 55Q       0.038033
     82 H32         -5.2830    -1.9390    -0.3600 hc         1 55Q       0.038033
     83 H33         -2.7040    -0.9990    -2.9620 hc         1 55Q       0.038033
     84 H34         -4.4310    -1.1430    -3.2570 hc         1 55Q       0.038033
     85 H35         -3.8500    -0.3420    -1.7980 hc         1 55Q       0.038033
     86 H36         -1.2220    -3.4390    -2.2750 hc         1 55Q       0.078200
     87 H37         -0.9880    -1.7670    -1.8020 hc         1 55Q       0.078200
     88 H38         -0.1550    -2.6180     0.4590 h1         1 55Q       0.096700
     89 H39          0.4910    -7.0670    -0.0120 hc         1 55Q       0.067033
     90 H40          0.8540    -6.9580     1.7220 hc         1 55Q       0.067033
     91 H41         -0.8000    -6.7300     1.1300 hc         1 55Q       0.067033
     92 H42          4.0920    -2.6870    -3.0760 h4         1 55Q       0.195000
     93 H43          2.4140     0.3410    -0.1550 hn         1 55Q       0.326500
     94 H44          4.3250     2.2260    -1.3780 h1         1 55Q       0.075700
     95 H45          4.4490     3.4360     0.7860 hc         1 55Q       0.043700
     96 H46          3.4470     2.2240     1.5430 hc         1 55Q       0.043700
     97 H47          5.2070     0.5010     1.1010 hc         1 55Q       0.036700
     98 H48          7.5020     1.2520     0.4950 hc         1 55Q       0.018367
     99 H49          6.3750     1.4800    -0.8340 hc         1 55Q       0.018367
    100 H50          6.8840     2.8640     0.1340 hc         1 55Q       0.018367
    101 H52          1.6870     2.8310     0.0200 hc         1 55Q       0.049700
    102 H53          2.7010     3.9650    -0.8490 hc         1 55Q       0.049700
    103 H54          3.0030     3.6490    -3.3740 ha         1 55Q       0.137500
    104 H55          1.8580     3.0240    -5.4630 ha         1 55Q       0.124000
    105 H56         -0.1660     1.6000    -5.3960 ha         1 55Q       0.117000
    106 H57         -1.0260     0.8000    -3.2060 ha         1 55Q       0.124000
    107 H58          0.1060     1.4210    -1.1360 ha         1 55Q       0.137500
@<TRIPOS>BOND
     1     1     2 1   
     2     1     3 1   
     3     1     9 1   
     4     2    61 1   
     5     2    62 1   
     6     2    63 1   
     7     3     4 1   
     8     3     6 1   
     9     3    52 1   
    10     4     5 2   
    11     4    10 1   
    12     6     7 1   
    13     6    53 1   
    14     6    54 1   
    15     7     8 1   
    16     7    55 1   
    17     7    56 1   
    18     8     9 1   
    19     8    57 1   
    20     8    58 1   
    21     9    59 1   
    22     9    60 1   
    23    10    11 1   
    24    10    64 1   
    25    11    12 1   
    26    11    14 1   
    27    11    65 1   
    28    12    13 2   
    29    12    18 1   
    30    14    15 1   
    31    14    16 1   
    32    14    66 1   
    33    15    17 1   
    34    15    67 1   
    35    15    68 1   
    36    16    69 1   
    37    16    70 1   
    38    16    71 1   
    39    17    72 1   
    40    17    73 1   
    41    17    74 1   
    42    18    19 1   
    43    18    20 1   
    44    19    75 1   
    45    19    76 1   
    46    19    77 1   
    47    20    21 1   
    48    20    24 1   
    49    20    78 1   
    50    21    22 1   
    51    21    23 1   
    52    21    79 1   
    53    22    80 1   
    54    22    81 1   
    55    22    82 1   
    56    23    83 1   
    57    23    84 1   
    58    23    85 1   
    59    24    25 1   
    60    24    86 1   
    61    24    87 1   
    62    25    26 1   
    63    25    30 1   
    64    25    88 1   
    65    26    27 1   
    66    27    28 2   
    67    27    29 1   
    68    29    89 1   
    69    29    90 1   
    70    29    91 1   
    71    30    31 2   
    72    30    36 1   
    73    31    32 1   
    74    32    33 1   
    75    32    35 2   
    76    33    34 2   
    77    33    37 1   
    78    35    36 1   
    79    35    92 1   
    80    37    38 1   
    81    37    93 1   
    82    38    39 1   
    83    38    45 1   
    84    38    94 1   
    85    39    40 1   
    86    39    95 1   
    87    39    96 1   
    88    40    41 1   
    89    40    42 1   
    90    40    97 1   
    91    41    98 1   
    92    41    99 1   
    93    41   100 1   
    94    42    43 1   
    95    42    44 1   
    96    45    46 1   
    97    45   101 1   
    98    45   102 1   
    99    46    47 ar  
   100    46    51 ar  
   101    47    48 ar  
   102    47   103 1   
   103    48    49 ar  
   104    48   104 1   
   105    49    50 ar  
   106    49   105 1   
   107    50    51 ar  
   108    50   106 1   
   109    51   107 1   
@<TRIPOS>SUBSTRUCTURE
     1 55Q         1 TEMP              0 ****  ****    0 ROOT
