@<TRIPOS>MOLECULE
55R
   27    28     1     0     0
SMALL
abcg2


@<TRIPOS>ATOM
      1 O1          -1.2830    -2.1830    -0.0720 o          1 55R      -0.692500
      2 O2          -3.4740    -2.5360    -0.1000 o          1 55R      -0.692500
      3 C3          -2.4860    -1.7960    -0.0710 c          1 55R       0.723600
      4 C4          -2.7330    -0.2930    -0.0290 ca         1 55R      -0.178600
      5 C5          -1.6930     0.6560    -0.0020 ca         1 55R       0.290000
      6 C6          -1.9740     2.0230     0.0360 ca         1 55R      -0.154000
      7 C7          -3.2880     2.4540     0.0490 ca         1 55R      -0.109000
      8 C8          -4.3300     1.5330     0.0240 ca         1 55R      -0.158000
      9 C9          -4.0420     0.1790    -0.0150 ca         1 55R      -0.063000
     10 C13          4.6230    -0.2290    -0.0140 c          1 55R       0.573500
     11 C12          4.1970     1.1610     0.0230 cc         1 55R      -0.342700
     12 C11          2.8890     1.4970     0.0270 cd         1 55R      -0.166600
     13 C14          3.5500    -1.2220    -0.0440 cc         1 55R      -0.342700
     14 C15          2.2470    -0.8760    -0.0390 cd         1 55R      -0.166600
     15 C10          1.8520     0.5070    -0.0030 cd         1 55R       0.248900
     16 N9           0.6200     0.9710     0.0070 n2         1 55R      -0.332400
     17 N8          -0.3880     0.1800    -0.0150 nu         1 55R      -0.599300
     18 H2          -1.1650     2.7390     0.0570 ha         1 55R       0.118000
     19 H3          -3.4980     3.5150     0.0790 ha         1 55R       0.092000
     20 H4          -5.3580     1.8710     0.0350 ha         1 55R       0.095000
     21 H5          -4.8490    -0.5410    -0.0350 ha         1 55R       0.132000
     22 H6           4.9620     1.9260     0.0460 ha         1 55R       0.182000
     23 H8           2.5850     2.5360     0.0540 ha         1 55R       0.187500
     24 H9           3.8340    -2.2680    -0.0720 ha         1 55R       0.182000
     25 H10          1.5040    -1.6630    -0.0620 ha         1 55R       0.187500
     26 H7          -0.3730    -0.8720    -0.0400 hn         1 55R       0.583000
     27 O16          5.8100    -0.5600    -0.0180 o          1 55R      -0.601100
@<TRIPOS>BOND
     1     1     3 1   
     2     2     3 1   
     3     3     4 1   
     4     4     5 ar  
     5     4     9 ar  
     6     5     6 ar  
     7     5    17 1   
     8     6     7 ar  
     9     6    18 1   
    10     7     8 ar  
    11     7    19 1   
    12     8     9 ar  
    13     8    20 1   
    14     9    21 1   
    15    10    11 1   
    16    10    13 1   
    17    10    27 2   
    18    11    12 2   
    19    11    22 1   
    20    12    15 1   
    21    12    23 1   
    22    13    14 2   
    23    13    24 1   
    24    14    15 1   
    25    14    25 1   
    26    15    16 2   
    27    16    17 1   
    28    17    26 1   
@<TRIPOS>SUBSTRUCTURE
     1 55R         1 TEMP              0 ****  ****    0 ROOT
