@<TRIPOS>MOLECULE
55R
   27    28     1     0     0
SMALL
No Charge or Current Charge


@<TRIPOS>ATOM
      1 O1          -1.4100    -2.2490    -0.0780 o          1 55R      -0.692500
      2 O2          -3.5310    -2.5690    -0.0990 o          1 55R      -0.692500
      3 C3          -2.5600    -1.8270    -0.0720 c          1 55R       0.723600
      4 C4          -2.8010    -0.3240    -0.0290 ca         1 55R      -0.178600
      5 C5          -1.7380     0.6210    -0.0010 ca         1 55R       0.290000
      6 C6          -2.0340     2.0020     0.0380 ca         1 55R      -0.154000
      7 C7          -3.3600     2.4570     0.0490 ca         1 55R      -0.109000
      8 C8          -4.4090     1.5330     0.0210 ca         1 55R      -0.158000
      9 C9          -4.1350     0.1570    -0.0170 ca         1 55R      -0.063000
     10 C13          4.7150    -0.2590    -0.0170 c          1 55R       0.573500
     11 C12          4.3090     1.1480     0.0200 cc         1 55R      -0.342700
     12 C11          2.9850     1.5560     0.0300 cd         1 55R      -0.166600
     13 C14          3.6060    -1.2190    -0.0440 cc         1 55R      -0.342700
     14 C15          2.2710    -0.8450    -0.0360 cd         1 55R      -0.166600
     15 C10          1.9340     0.5680     0.0020 cd         1 55R       0.248900
     16 N9           0.7070     1.0080     0.0120 n2         1 55R      -0.332400
     17 N8          -0.4000     0.1950    -0.0110 nu         1 55R      -0.599300
     18 H2          -1.2320     2.7340     0.0600 ha         1 55R       0.118000
     19 H3          -3.5720     3.5240     0.0790 ha         1 55R       0.092000
     20 H4          -5.4400     1.8810     0.0300 ha         1 55R       0.095000
     21 H5          -4.9730    -0.5370    -0.0380 ha         1 55R       0.132000
     22 H6           5.1240     1.8630     0.0410 ha         1 55R       0.182000
     23 H8           2.7300     2.6120     0.0580 ha         1 55R       0.187500
     24 H9           3.9030    -2.2620    -0.0720 ha         1 55R       0.182000
     25 H10          1.5060    -1.6130    -0.0570 ha         1 55R       0.187500
     26 H7          -0.3430    -0.8410    -0.0390 hn         1 55R       0.583000
     27 O16          5.8860    -0.6060    -0.0250 o          1 55R      -0.601100
@<TRIPOS>BOND
     1     1     3 1   
     2     2     3 1   
     3     3     4 1   
     4     4     5 ar  
     5     4     9 ar  
     6     5     6 ar  
     7     5    17 1   
     8     6     7 ar  
     9     6    18 1   
    10     7     8 ar  
    11     7    19 1   
    12     8     9 ar  
    13     8    20 1   
    14     9    21 1   
    15    10    11 1   
    16    10    13 1   
    17    10    27 2   
    18    11    12 2   
    19    11    22 1   
    20    12    15 1   
    21    12    23 1   
    22    13    14 2   
    23    13    24 1   
    24    14    15 1   
    25    14    25 1   
    26    15    16 2   
    27    16    17 1   
    28    17    26 1   
@<TRIPOS>SUBSTRUCTURE
     1 55R         1 TEMP              0 ****  ****    0 ROOT
