@<TRIPOS>MOLECULE
55S
   54    57     1     0     0
SMALL
abcg2


@<TRIPOS>ATOM
      1 C4           1.7960     3.2490     0.1660 ca         1 55S      -0.185000
      2 C14         -2.8040    -5.4260    -1.1150 c6         1 55S      -0.072900
      3 C5           0.8010     2.2630     0.0710 ca         1 55S       0.385000
      4 C6          -1.6990     2.0340     0.1730 ca         1 55S       0.437900
      5 C11         -1.6550    -1.9930     0.2830 c3         1 55S       0.170600
      6 C7          -3.9010     2.1540     0.1790 ca         1 55S       0.151500
      7 C8          -6.0030     1.5500     0.1790 cc         1 55S       0.394700
      8 C9          -4.0460     0.7680     0.1560 ca         1 55S      -0.088600
      9 C10         -2.8460     0.0520     0.1560 ca         1 55S       0.462300
     10 C12         -1.9800    -3.4730     0.2610 c6         1 55S      -0.068700
     11 C13         -2.5370    -3.9240    -1.0900 c6         1 55S      -0.071400
     12 N1          -2.7610     2.8290     0.1870 nb         1 55S      -0.270000
     13 N2          -5.1710     2.6330     0.1940 na         1 55S      -0.415300
     14 C3           3.1310     2.9310     0.0440 ca         1 55S       0.019000
     15 N3          -5.3720     0.4140     0.1580 nd         1 55S      -0.509100
     16 O1           5.9440     2.4010    -0.7160 o          1 55S      -0.526500
     17 O            5.3150     0.0200    -1.2190 o          1 55S      -0.526500
     18 C1           5.7210     0.7070     1.2990 c3         1 55S      -0.294400
     19 C            7.1910     0.3250     1.3080 c3         1 55S      -0.070100
     20 C2           3.5020     1.6090    -0.1800 ca         1 55S      -0.317500
     21 C19          2.5330     0.6200    -0.2740 ca         1 55S       0.019000
     22 C18          1.1930     0.9350    -0.1450 ca         1 55S      -0.185000
     23 N           -0.5010     2.6990     0.1800 nu         1 55S      -0.926900
     24 N4          -1.6960     0.6980     0.1640 nb         1 55S      -0.344000
     25 O2          -2.8810    -1.2620     0.1570 os         1 55S      -0.427300
     26 C17         -0.7240    -4.2720     0.6120 c6         1 55S      -0.071400
     27 C16         -0.9940    -5.7740     0.5920 c6         1 55S      -0.072900
     28 C15         -1.5520    -6.2200    -0.7550 c6         1 55S      -0.076400
     29 H1           1.5140     4.2820     0.3340 ha         1 55S       0.134500
     30 H3          -3.1710    -5.7210    -2.1020 hc         1 55S       0.040950
     31 H4          -1.1650    -1.7130     1.2200 h1         1 55S       0.051200
     32 H5          -0.9800    -1.7380    -0.5390 h1         1 55S       0.051200
     33 H6          -7.0760     1.6700     0.1870 h5         1 55S       0.070800
     34 H7          -2.7310    -3.6700     1.0360 hc         1 55S       0.065700
     35 H8          -1.8060    -3.6760    -1.8700 hc         1 55S       0.043700
     36 H9          -3.4510    -3.3790    -1.3330 hc         1 55S       0.043700
     37 H10         -5.4520     3.6010     0.2140 hn         1 55S       0.371000
     38 H11          3.8720     3.7150     0.1170 ha         1 55S       0.135500
     39 H13          5.5170     1.5540     1.9550 h1         1 55S       0.092200
     40 H14          5.0810    -0.1230     1.6010 h1         1 55S       0.092200
     41 H15          7.3930    -0.5170     0.6500 hc         1 55S       0.052700
     42 H16          7.8240     1.1600     1.0140 hc         1 55S       0.052700
     43 H17          7.4720     0.0340     2.3190 hc         1 55S       0.052700
     44 H18          2.8100    -0.4100    -0.4570 ha         1 55S       0.135500
     45 H19          0.4560     0.1540    -0.2190 ha         1 55S       0.134500
     46 H20         -0.6140     3.7000     0.2440 hn         1 55S       0.515000
     47 H21          0.0690    -4.0370    -0.1090 hc         1 55S       0.043700
     48 H22         -0.3510    -3.9730     1.5950 hc         1 55S       0.043700
     49 H23         -0.0770    -6.3200     0.8270 hc         1 55S       0.040950
     50 H24         -1.7140    -6.0190     1.3800 hc         1 55S       0.040950
     51 H25         -1.7730    -7.2900    -0.7390 hc         1 55S       0.040200
     52 H26         -0.7930    -6.0690    -1.5300 hc         1 55S       0.040200
     53 S            5.2050     1.1910    -0.3480 sy         1 55S       1.052500
     54 H2          -3.6020    -5.6650    -0.4030 hc         1 55S       0.040950
@<TRIPOS>BOND
     1     1     3 ar  
     2     1    14 ar  
     3     1    29 1   
     4     2    11 1   
     5     2    28 1   
     6     2    30 1   
     7     2    54 1   
     8     3    22 ar  
     9     3    23 1   
    10     4    12 ar  
    11     4    23 1   
    12     4    24 ar  
    13     5    10 1   
    14     5    25 1   
    15     5    31 1   
    16     5    32 1   
    17     6     8 ar  
    18     6    12 ar  
    19     6    13 1   
    20     7    13 1   
    21     7    15 2   
    22     7    33 1   
    23     8     9 ar  
    24     8    15 1   
    25     9    24 ar  
    26     9    25 1   
    27    10    11 1   
    28    10    26 1   
    29    10    34 1   
    30    11    35 1   
    31    11    36 1   
    32    13    37 1   
    33    14    20 ar  
    34    14    38 1   
    35    16    53 2   
    36    17    53 2   
    37    18    19 1   
    38    18    39 1   
    39    18    40 1   
    40    18    53 1   
    41    19    41 1   
    42    19    42 1   
    43    19    43 1   
    44    20    21 ar  
    45    20    53 1   
    46    21    22 ar  
    47    21    44 1   
    48    22    45 1   
    49    23    46 1   
    50    26    27 1   
    51    26    47 1   
    52    26    48 1   
    53    27    28 1   
    54    27    49 1   
    55    27    50 1   
    56    28    51 1   
    57    28    52 1   
@<TRIPOS>SUBSTRUCTURE
     1 55S         1 TEMP              0 ****  ****    0 ROOT
