@<TRIPOS>MOLECULE
55S
   54    57     1     0     0
SMALL
No Charge or Current Charge


@<TRIPOS>ATOM
      1 C4           1.8060     3.3620     0.5060 ca         1 55S      -0.185000
      2 C14         -3.0030    -5.5500    -0.8060 c6         1 55S      -0.072900
      3 C5           0.8630     2.4990    -0.0700 ca         1 55S       0.385000
      4 C6          -1.6720     2.1250     0.0210 ca         1 55S       0.437900
      5 C11         -1.5720    -2.0230     0.2790 c3         1 55S       0.170600
      6 C7          -3.9420     2.1930     0.0280 ca         1 55S       0.151500
      7 C8          -6.0540     1.4720     0.0730 cc         1 55S       0.394700
      8 C9          -3.9930     0.8260     0.1090 ca         1 55S      -0.088600
      9 C10         -2.7730     0.1120     0.1540 ca         1 55S       0.462300
     10 C12         -1.9070    -3.5400     0.3580 c6         1 55S      -0.068700
     11 C13         -2.6870    -4.0360    -0.8950 c6         1 55S      -0.071400
     12 N1          -2.7880     2.8760    -0.0140 nb         1 55S      -0.270000
     13 N2          -5.2390     2.5980     0.0060 na         1 55S      -0.415300
     14 C3           3.1790     3.0680     0.4430 ca         1 55S       0.019000
     15 N3          -5.3110     0.3520     0.1390 nd         1 55S      -0.509100
     16 O1           6.1400     2.7530    -0.1120 o          1 55S      -0.526500
     17 O            5.6100     0.6320    -1.4440 o          1 55S      -0.526500
     18 C1           5.6310     0.5140     1.1950 c3         1 55S      -0.294400
     19 C            7.0940     0.0380     1.3690 c3         1 55S      -0.070100
     20 C2           3.6160     1.9030    -0.2160 ca         1 55S      -0.317500
     21 C19          2.6750     1.0400    -0.8090 ca         1 55S       0.019000
     22 C18          1.3050     1.3440    -0.7380 ca         1 55S      -0.185000
     23 N           -0.4890     2.8410     0.0110 nu         1 55S      -0.926900
     24 N4          -1.6010     0.7840     0.1140 nb         1 55S      -0.344000
     25 O2          -2.7950    -1.2660     0.2400 os         1 55S      -0.427300
     26 C17         -0.6170    -4.3850     0.5600 c6         1 55S      -0.071400
     27 C16         -0.9360    -5.8980     0.6490 c6         1 55S      -0.072900
     28 C15         -1.7150    -6.3810    -0.5980 c6         1 55S      -0.076400
     29 H1           1.4780     4.2620     1.0170 ha         1 55S       0.134500
     30 H3          -3.5150    -5.8780    -1.7210 hc         1 55S       0.040950
     31 H4          -0.9770    -1.7440     1.1600 h1         1 55S       0.051200
     32 H5          -0.9660    -1.8350    -0.6180 h1         1 55S       0.051200
     33 H6          -7.1360     1.5300     0.0710 h5         1 55S       0.070800
     34 H7          -2.5450    -3.6670     1.2440 hc         1 55S       0.065700
     35 H8          -2.1010    -3.8360    -1.8030 hc         1 55S       0.043700
     36 H9          -3.6270    -3.4770    -1.0040 hc         1 55S       0.043700
     37 H10         -5.5630     3.5540    -0.0500 hn         1 55S       0.371000
     38 H11          3.8930     3.7480     0.9080 ha         1 55S       0.135500
     39 H13          5.3270     1.1290     2.0490 h1         1 55S       0.092200
     40 H14          4.9580    -0.3470     1.1200 h1         1 55S       0.092200
     41 H15          7.4090    -0.5810     0.5200 hc         1 55S       0.052700
     42 H16          7.7780     0.8920     1.4460 hc         1 55S       0.052700
     43 H17          7.1940    -0.5610     2.2820 hc         1 55S       0.052700
     44 H18          2.9960     0.1370    -1.3280 ha         1 55S       0.135500
     45 H19          0.5960     0.6820    -1.2230 ha         1 55S       0.134500
     46 H20         -0.6450     3.8330     0.1830 hn         1 55S       0.515000
     47 H21          0.0800    -4.2060    -0.2710 hc         1 55S       0.043700
     48 H22         -0.0990    -4.0660     1.4750 hc         1 55S       0.043700
     49 H23         -0.0030    -6.4700     0.7500 hc         1 55S       0.040950
     50 H24         -1.5250    -6.1000     1.5550 hc         1 55S       0.040950
     51 H25         -1.9700    -7.4440    -0.4900 hc         1 55S       0.040200
     52 H26         -1.0750    -6.3020    -1.4880 hc         1 55S       0.040200
     53 S            5.3740     1.5130    -0.2920 sy         1 55S       1.052500
     54 H2          -3.7010    -5.7340     0.0230 hc         1 55S       0.040950
@<TRIPOS>BOND
     1     1     3 ar  
     2     1    14 ar  
     3     1    29 1   
     4     2    11 1   
     5     2    28 1   
     6     2    30 1   
     7     2    54 1   
     8     3    22 ar  
     9     3    23 1   
    10     4    12 ar  
    11     4    23 1   
    12     4    24 ar  
    13     5    10 1   
    14     5    25 1   
    15     5    31 1   
    16     5    32 1   
    17     6     8 ar  
    18     6    12 ar  
    19     6    13 1   
    20     7    13 1   
    21     7    15 2   
    22     7    33 1   
    23     8     9 ar  
    24     8    15 1   
    25     9    24 ar  
    26     9    25 1   
    27    10    11 1   
    28    10    26 1   
    29    10    34 1   
    30    11    35 1   
    31    11    36 1   
    32    13    37 1   
    33    14    20 ar  
    34    14    38 1   
    35    16    53 2   
    36    17    53 2   
    37    18    19 1   
    38    18    39 1   
    39    18    40 1   
    40    18    53 1   
    41    19    41 1   
    42    19    42 1   
    43    19    43 1   
    44    20    21 ar  
    45    20    53 1   
    46    21    22 ar  
    47    21    44 1   
    48    22    45 1   
    49    23    46 1   
    50    26    27 1   
    51    26    47 1   
    52    26    48 1   
    53    27    28 1   
    54    27    49 1   
    55    27    50 1   
    56    28    51 1   
    57    28    52 1   
@<TRIPOS>SUBSTRUCTURE
     1 55S         1 TEMP              0 ****  ****    0 ROOT
