@<TRIPOS>MOLECULE
55U
   47    49     1     0     0
SMALL
No Charge or Current Charge


@<TRIPOS>ATOM
      1 C10         -0.2120     0.9450    -0.0220 cp         1 55U       0.492500
      2 C15          4.1510     3.3900    -0.0220 ca         1 55U      -0.196000
      3 C17          2.4600     1.6670    -0.0080 ca         1 55U      -0.190000
      4 C20          2.5310    -2.1750     0.0440 c3         1 55U       0.231800
      5 C21          3.8050    -3.0400     0.0760 c3         1 55U      -0.100400
      6 C22          3.4870    -4.5470     0.0870 c3         1 55U       0.153800
      7 C01         -6.8430     0.1230    -0.1740 c3         1 55U       0.219100
      8 C03         -6.0700    -2.2730     0.0580 c3         1 55U       0.219100
      9 C04         -4.3700    -0.4010    -0.0440 ca         1 55U       0.352000
     10 C05         -3.3380    -1.2410    -0.5000 ca         1 55U      -0.208000
     11 C06         -2.0010    -0.8110    -0.4920 ca         1 55U      -0.030000
     12 C07         -1.6450     0.4830    -0.0290 cp         1 55U      -0.212500
     13 C08         -2.6950     1.3180     0.4340 ca         1 55U      -0.030000
     14 C09         -4.0310     0.8810     0.4240 ca         1 55U      -0.208000
     15 C11          0.1440     2.3070    -0.0500 ca         1 55U      -0.209000
     16 C12          1.4870     2.6840    -0.0410 ca         1 55U       0.338000
     17 N13          1.8120     3.9950    -0.0660 nb         1 55U      -0.675000
     18 C14          3.1200     4.3380    -0.0560 ca         1 55U       0.373900
     19 C16          3.8260     2.0260     0.0030 ca         1 55U      -0.034000
     20 C18          2.0140     0.3340     0.0090 ca         1 55U       0.664900
     21 N19          2.8770    -0.7440     0.0350 nu         1 55U      -0.938100
     22 N23          4.7190    -5.3580     0.1090 n8         1 55U      -0.997200
     23 N24          0.7280    -0.0170    -0.0010 nb         1 55U      -0.793000
     24 H1           5.1880     3.7150    -0.0150 ha         1 55U       0.124000
     25 H2           1.9460    -2.4280    -0.8520 h1         1 55U       0.052200
     26 H3           1.9150    -2.4080     0.9250 h1         1 55U       0.052200
     27 H4           4.4210    -2.8080    -0.8020 hc         1 55U       0.050700
     28 H5           4.3920    -2.7860     0.9670 hc         1 55U       0.050700
     29 H6           2.8850    -4.7930     0.9740 h1         1 55U       0.031200
     30 H7           2.9080    -4.8100    -0.8100 h1         1 55U       0.031200
     31 H8          -7.1070     0.5330     0.8100 h1         1 55U       0.035533
     32 H9          -6.5710     0.9520    -0.8420 h1         1 55U       0.035533
     33 H10         -7.7310    -0.3660    -0.5970 h1         1 55U       0.035533
     34 H11         -7.0830    -2.3980     0.4660 h1         1 55U       0.035533
     35 H12         -6.0300    -2.7560    -0.9270 h1         1 55U       0.035533
     36 H13         -5.3750    -2.7890     0.7340 h1         1 55U       0.035533
     37 H14         -3.5650    -2.2330    -0.8770 ha         1 55U       0.110500
     38 H15         -1.2350    -1.4910    -0.8620 ha         1 55U       0.118500
     39 H16         -2.4810     2.3100     0.8250 ha         1 55U       0.118500
     40 H17         -4.8000     1.5490     0.8000 ha         1 55U       0.110500
     41 H18         -0.6190     3.0740    -0.0930 ha         1 55U       0.138000
     42 H19          3.3440     5.4040    -0.0770 h4         1 55U       0.017100
     43 H20          4.6210     1.2850     0.0280 ha         1 55U       0.108000
     44 H21          3.8630    -0.5020     0.0380 hn         1 55U       0.491000
     45 H22          5.2210    -5.1810     0.9880 hn         1 55U       0.394000
     46 H23          4.4640    -6.3520     0.1750 hn         1 55U       0.394000
     47 N02         -5.7200    -0.8370    -0.0530 nh         1 55U      -0.828400
@<TRIPOS>BOND
     1     1    12 1   
     2     1    15 ar  
     3     1    23 ar  
     4     2    18 ar  
     5     2    19 ar  
     6     2    24 1   
     7     3    16 ar  
     8     3    19 ar  
     9     3    20 ar  
    10     4     5 1   
    11     4    21 1   
    12     4    25 1   
    13     4    26 1   
    14     5     6 1   
    15     5    27 1   
    16     5    28 1   
    17     6    22 1   
    18     6    29 1   
    19     6    30 1   
    20     7    31 1   
    21     7    32 1   
    22     7    33 1   
    23     7    47 1   
    24     8    34 1   
    25     8    35 1   
    26     8    36 1   
    27     8    47 1   
    28     9    10 ar  
    29     9    14 ar  
    30     9    47 1   
    31    10    11 ar  
    32    10    37 1   
    33    11    12 ar  
    34    11    38 1   
    35    12    13 ar  
    36    13    14 ar  
    37    13    39 1   
    38    14    40 1   
    39    15    16 ar  
    40    15    41 1   
    41    16    17 ar  
    42    17    18 ar  
    43    18    42 1   
    44    19    43 1   
    45    20    21 1   
    46    20    23 ar  
    47    21    44 1   
    48    22    45 1   
    49    22    46 1   
@<TRIPOS>SUBSTRUCTURE
     1 55U         1 TEMP              0 ****  ****    0 ROOT
