@<TRIPOS>MOLECULE
55U
   47    49     1     0     0
SMALL
bcc


@<TRIPOS>ATOM
      1 C10         -0.2110     0.9800    -0.0220 cp         1 55U       0.557800
      2 C15          4.1320     3.3910     0.0330 ca         1 55U      -0.279300
      3 C17          2.4730     1.6660    -0.0070 ca         1 55U      -0.320600
      4 C20          2.4790    -2.1060    -0.1140 c3         1 55U       0.231800
      5 C21          3.6790    -3.0170     0.0930 c3         1 55U      -0.100400
      6 C22          3.2950    -4.4850    -0.0010 c3         1 55U       0.153800
      7 C01         -6.6790     0.0220     0.1290 c3         1 55U       0.219100
      8 C03         -5.8540    -2.3120    -0.1240 c3         1 55U       0.219100
      9 C04         -4.3000    -0.4430    -0.0660 ca         1 55U       0.213600
     10 C05         -3.2030    -1.3230    -0.1430 ca         1 55U      -0.226000
     11 C06         -1.9050    -0.8510    -0.1260 ca         1 55U      -0.048000
     12 C07         -1.6070     0.5110    -0.0300 cp         1 55U      -0.212500
     13 C08         -2.6970     1.3810     0.0600 ca         1 55U      -0.048000
     14 C09         -4.0020     0.9310     0.0490 ca         1 55U      -0.226000
     15 C11          0.1240     2.3130    -0.0050 ca         1 55U      -0.357600
     16 C12          1.4860     2.6780     0.0030 ca         1 55U       0.468600
     17 N13          1.8110     3.9910     0.0210 nb         1 55U      -0.675000
     18 C14          3.0790     4.3190     0.0340 ca         1 55U       0.439200
     19 C16          3.8190     2.0550     0.0120 ca         1 55U      -0.052000
     20 C18          2.0050     0.3000    -0.0330 ca         1 55U       0.730200
     21 N19          2.8830    -0.7200    -0.0300 nu         1 55U      -0.882900
     22 N23          4.4590    -5.3350     0.1990 n8         1 55U      -0.886800
     23 N24          0.7270     0.0050    -0.0430 nb         1 55U      -0.793000
     24 H1           5.1580     3.7300     0.0480 ha         1 55U       0.142000
     25 H2           2.0130    -2.3160    -1.0830 h1         1 55U       0.052200
     26 H3           1.7200    -2.3060     0.6450 h1         1 55U       0.052200
     27 H4           4.4470    -2.8010    -0.6560 hc         1 55U       0.050700
     28 H5           4.1200    -2.8140     1.0740 hc         1 55U       0.050700
     29 H6           2.4760    -4.6860     0.7060 h1         1 55U       0.031200
     30 H7           2.8940    -4.6860    -0.9980 h1         1 55U       0.031200
     31 H8          -6.6520     0.4680     1.1280 h1         1 55U       0.035533
     32 H9          -6.6880     0.8360    -0.6000 h1         1 55U       0.035533
     33 H10         -7.6200    -0.5120     0.0280 h1         1 55U       0.035533
     34 H11         -6.9240    -2.4710    -0.2170 h1         1 55U       0.035533
     35 H12         -5.3780    -2.7980    -0.9780 h1         1 55U       0.035533
     36 H13         -5.5150    -2.8210     0.7850 h1         1 55U       0.035533
     37 H14         -3.3550    -2.3910    -0.2140 ha         1 55U       0.128500
     38 H15         -1.0930    -1.5640    -0.1880 ha         1 55U       0.136500
     39 H16         -2.5440     2.4490     0.1500 ha         1 55U       0.136500
     40 H17         -4.7920     1.6630     0.1310 ha         1 55U       0.128500
     41 H18         -0.6150     3.1010    -0.0010 ha         1 55U       0.156000
     42 H19          3.3040     5.3800     0.0490 h4         1 55U       0.017100
     43 H20          4.6200     1.3280     0.0140 ha         1 55U       0.126000
     44 H21          3.8610    -0.5260    -0.1550 hn         1 55U       0.435800
     45 H22          4.7750    -5.2490     1.1570 hn         1 55U       0.338800
     46 H23          4.1890    -6.3040     0.0880 hn         1 55U       0.338800
     47 N02         -5.5860    -0.8930    -0.1030 nh         1 55U      -0.690000
@<TRIPOS>BOND
     1     1    12 1   
     2     1    15 ar  
     3     1    23 ar  
     4     2    18 ar  
     5     2    19 ar  
     6     2    24 1   
     7     3    16 ar  
     8     3    19 ar  
     9     3    20 ar  
    10     4     5 1   
    11     4    21 1   
    12     4    25 1   
    13     4    26 1   
    14     5     6 1   
    15     5    27 1   
    16     5    28 1   
    17     6    22 1   
    18     6    29 1   
    19     6    30 1   
    20     7    31 1   
    21     7    32 1   
    22     7    33 1   
    23     7    47 1   
    24     8    34 1   
    25     8    35 1   
    26     8    36 1   
    27     8    47 1   
    28     9    10 ar  
    29     9    14 ar  
    30     9    47 1   
    31    10    11 ar  
    32    10    37 1   
    33    11    12 ar  
    34    11    38 1   
    35    12    13 ar  
    36    13    14 ar  
    37    13    39 1   
    38    14    40 1   
    39    15    16 ar  
    40    15    41 1   
    41    16    17 ar  
    42    17    18 ar  
    43    18    42 1   
    44    19    43 1   
    45    20    21 1   
    46    20    23 ar  
    47    21    44 1   
    48    22    45 1   
    49    22    46 1   
@<TRIPOS>SUBSTRUCTURE
     1 55U         1 TEMP              0 ****  ****    0 ROOT
