@<TRIPOS>MOLECULE
55V
   50    51     1     0     0
SMALL
No Charge or Current Charge


@<TRIPOS>ATOM
      1 C1P         -1.6060    -2.9680    -1.7310 c3         1 55V       0.145900
      2 O1O         -2.5740    -2.4480    -0.8020 os         1 55V      -0.324600
      3 C1N         -2.5780    -1.1340    -0.3600 ca         1 55V       0.156100
      4 C1M         -1.5980    -0.2270    -0.8240 ca         1 55V      -0.221500
      5 C1Q         -3.5670    -0.6820     0.5640 ca         1 55V       0.024100
      6 O1V         -4.5850    -1.4790     1.0940 os         1 55V      -0.328100
      7 C1W         -4.7890    -2.8710     0.7950 c3         1 55V       0.148900
      8 C1R         -3.5380     0.6650     0.9900 ca         1 55V       0.156100
      9 O1T         -4.5080     1.0850     1.8890 os         1 55V      -0.324600
     10 C1U         -4.5780     2.4300     2.3940 c3         1 55V       0.145900
     11 C1S         -2.5480     1.5510     0.5120 ca         1 55V      -0.221500
     12 C1L         -1.5630     1.1190    -0.4020 ca         1 55V       0.002700
     13 C1J         -0.4560     2.0650    -0.9530 c3         1 55V       0.093400
     14 C1K         -0.5750     2.1650    -2.4970 c3         1 55V      -0.079600
     15 C1X         -0.5040     3.5020    -0.3630 c3         1 55V      -0.079600
     16 C1I          0.8550     1.4840    -0.6040 c1         1 55V      -0.157100
     17 C1H          1.9090     0.9570    -0.3140 cg         1 55V      -0.085000
     18 C5           3.1460     0.3040     0.0310 ca         1 55V      -0.228000
     19 C4           3.2510    -1.1060     0.0570 ca         1 55V       0.224300
     20 C1Y          2.0800    -2.0240    -0.2730 c3         1 55V      -0.154400
     21 N3           4.4120    -1.7120     0.3780 nb         1 55V      -0.297000
     22 C2           5.4420    -0.9080     0.6630 ca         1 55V       0.439900
     23 N1Z          6.6020    -1.5180     0.9830 nv         1 55V      -1.077900
     24 N1           5.4650     0.4260     0.6730 nb         1 55V      -0.345000
     25 C6           4.3130     1.0230     0.3580 ca         1 55V       0.445900
     26 N1G          4.3640     2.3800     0.3740 nv         1 55V      -1.071900
     27 H1P         -1.6460    -2.4250    -2.6840 h1         1 55V       0.040700
     28 H1PA        -0.5910    -2.8910    -1.3210 h1         1 55V       0.040700
     29 H1PB        -1.8080    -4.0270    -1.9350 h1         1 55V       0.040700
     30 H1M         -0.8370    -0.5610    -1.5200 ha         1 55V       0.124000
     31 H1W         -5.6570    -3.2510     1.3480 h1         1 55V       0.032700
     32 H1WA        -4.9840    -3.0180    -0.2750 h1         1 55V       0.032700
     33 H1WB        -3.9170    -3.4680     1.0900 h1         1 55V       0.032700
     34 H1U         -5.4210     2.5310     3.0880 h1         1 55V       0.040700
     35 H1UA        -3.6600     2.6910     2.9360 h1         1 55V       0.040700
     36 H1UB        -4.7230     3.1470     1.5760 h1         1 55V       0.040700
     37 H1S         -2.5500     2.5780     0.8540 ha         1 55V       0.124000
     38 H1K         -1.5590     2.5560    -2.7810 hc         1 55V       0.041033
     39 H1KA         0.1870     2.8390    -2.9090 hc         1 55V       0.041033
     40 H1KB        -0.4490     1.1890    -2.9800 hc         1 55V       0.041033
     41 H1X         -0.4000     3.4890     0.7290 hc         1 55V       0.041033
     42 H1XA         0.3090     4.1190    -0.7660 hc         1 55V       0.041033
     43 H1XB        -1.4490     3.9990    -0.6170 hc         1 55V       0.041033
     44 H1Y          1.7440    -1.8690    -1.3040 hc         1 55V       0.056700
     45 H1YA         2.3470    -3.0830    -0.1670 hc         1 55V       0.056700
     46 H1YB         1.2300    -1.8300     0.3920 hc         1 55V       0.056700
     47 HN1Z         6.5680    -2.5050     1.2270 hn         1 55V       0.504500
     48 HN1A         7.3240    -0.9640     1.4370 hn         1 55V       0.504500
     49 HN1G         3.6000     2.8850    -0.0680 hn         1 55V       0.498000
     50 HN1B         5.2760     2.8280     0.3650 hn         1 55V       0.498000
@<TRIPOS>BOND
     1     1     2 1   
     2     1    27 1   
     3     1    28 1   
     4     1    29 1   
     5     2     3 1   
     6     3     4 ar  
     7     3     5 ar  
     8     4    12 ar  
     9     4    30 1   
    10     5     6 1   
    11     5     8 ar  
    12     6     7 1   
    13     7    31 1   
    14     7    32 1   
    15     7    33 1   
    16     8     9 1   
    17     8    11 ar  
    18     9    10 1   
    19    10    34 1   
    20    10    35 1   
    21    10    36 1   
    22    11    12 ar  
    23    11    37 1   
    24    12    13 1   
    25    13    14 1   
    26    13    15 1   
    27    13    16 1   
    28    14    38 1   
    29    14    39 1   
    30    14    40 1   
    31    15    41 1   
    32    15    42 1   
    33    15    43 1   
    34    16    17 3   
    35    17    18 1   
    36    18    19 ar  
    37    18    25 ar  
    38    19    20 1   
    39    19    21 ar  
    40    20    44 1   
    41    20    45 1   
    42    20    46 1   
    43    21    22 ar  
    44    22    23 1   
    45    22    24 ar  
    46    23    47 1   
    47    23    48 1   
    48    24    25 ar  
    49    25    26 1   
    50    26    49 1   
    51    26    50 1   
@<TRIPOS>SUBSTRUCTURE
     1 55V         1 TEMP              0 ****  ****    0 ROOT
