@<TRIPOS>MOLECULE
55V
   50    51     1     0     0
SMALL
bcc


@<TRIPOS>ATOM
      1 C1P         -1.4520    -2.8560    -1.7930 c3         1 55V       0.122700
      2 O1O         -2.5990    -2.3570    -1.1370 os         1 55V      -0.301400
      3 C1N         -2.5750    -1.0980    -0.6660 ca         1 55V       0.156100
      4 C1M         -1.5020    -0.2250    -0.8100 ca         1 55V      -0.239500
      5 C1Q         -3.7320    -0.6850     0.0020 ca         1 55V       0.024100
      6 O1V         -4.7920    -1.5280     0.1230 os         1 55V      -0.304900
      7 C1W         -4.7460    -2.3600     1.2740 c3         1 55V       0.125700
      8 C1R         -3.7930     0.6030     0.5320 ca         1 55V       0.156100
      9 O1T         -4.9360     0.9150     1.1700 os         1 55V      -0.301400
     10 C1U         -5.0650     2.2060     1.7300 c3         1 55V       0.122700
     11 C1S         -2.7150     1.4760     0.3820 ca         1 55V      -0.239500
     12 C1L         -1.5700     1.0630    -0.2870 ca         1 55V       0.002700
     13 C1J         -0.4090     2.0300    -0.5300 c3         1 55V       0.093400
     14 C1K         -0.5170     2.5660    -1.9710 c3         1 55V      -0.079600
     15 C1X         -0.4070     3.2150     0.4450 c3         1 55V      -0.079600
     16 C1I          0.8640     1.3180    -0.3710 c1         1 55V      -0.157100
     17 C1H          1.9250     0.7600    -0.2310 cg         1 55V      -0.085000
     18 C5           3.1860     0.1350    -0.0650 ca         1 55V      -0.358600
     19 C4           3.3300    -1.2260     0.2030 ca         1 55V       0.552600
     20 C1Y          2.1290    -2.1100     0.3030 c3         1 55V      -0.154400
     21 N3           4.5170    -1.7960     0.3590 nb         1 55V      -0.823000
     22 C2           5.5880    -1.0000     0.2400 ca         1 55V       0.965900
     23 N1Z          6.7880    -1.5800     0.3880 nv         1 55V      -0.967500
     24 N1           5.5750     0.3070    -0.0150 nb         1 55V      -0.871000
     25 C6           4.3880     0.8820    -0.1670 ca         1 55V       0.774200
     26 N1G          4.3600     2.2000    -0.4030 nv         1 55V      -0.961500
     27 H1P         -1.2050    -2.2800    -2.6890 h1         1 55V       0.040700
     28 H1PA        -0.5800    -2.8720    -1.1340 h1         1 55V       0.040700
     29 H1PB        -1.6840    -3.8760    -2.0890 h1         1 55V       0.040700
     30 H1M         -0.6040    -0.5400    -1.3240 ha         1 55V       0.142000
     31 H1W         -5.6360    -2.9860     1.2540 h1         1 55V       0.032700
     32 H1WA        -3.8640    -3.0050     1.2730 h1         1 55V       0.032700
     33 H1WB        -4.7500    -1.7760     2.1970 h1         1 55V       0.032700
     34 H1U         -6.0520     2.2470     2.1840 h1         1 55V       0.040700
     35 H1UA        -4.3140     2.3930     2.5030 h1         1 55V       0.040700
     36 H1UB        -4.9930     2.9910     0.9730 h1         1 55V       0.040700
     37 H1S         -2.7710     2.4760     0.7870 ha         1 55V       0.142000
     38 H1K         -1.4650     3.0890    -2.1010 hc         1 55V       0.041033
     39 H1KA         0.2920     3.2680    -2.1790 hc         1 55V       0.041033
     40 H1KB        -0.4670     1.7570    -2.6990 hc         1 55V       0.041033
     41 H1X         -0.3920     2.8800     1.4820 hc         1 55V       0.041033
     42 H1XA         0.4760     3.8310     0.2750 hc         1 55V       0.041033
     43 H1XB        -1.2800     3.8530     0.2980 hc         1 55V       0.041033
     44 H1Y          1.7360    -2.3200    -0.6950 hc         1 55V       0.056700
     45 H1YA         2.3880    -3.0580     0.7690 hc         1 55V       0.056700
     46 H1YB         1.3260    -1.6380     0.8690 hc         1 55V       0.056700
     47 HN1Z         6.8560    -2.5590     0.5980 hn         1 55V       0.449300
     48 HN1A         7.6300    -1.0370     0.3280 hn         1 55V       0.449300
     49 HN1G         3.5000     2.6600    -0.6490 hn         1 55V       0.442800
     50 HN1B         5.2200     2.6860    -0.5920 hn         1 55V       0.442800
@<TRIPOS>BOND
     1     1     2 1   
     2     1    27 1   
     3     1    28 1   
     4     1    29 1   
     5     2     3 1   
     6     3     4 ar  
     7     3     5 ar  
     8     4    12 ar  
     9     4    30 1   
    10     5     6 1   
    11     5     8 ar  
    12     6     7 1   
    13     7    31 1   
    14     7    32 1   
    15     7    33 1   
    16     8     9 1   
    17     8    11 ar  
    18     9    10 1   
    19    10    34 1   
    20    10    35 1   
    21    10    36 1   
    22    11    12 ar  
    23    11    37 1   
    24    12    13 1   
    25    13    14 1   
    26    13    15 1   
    27    13    16 1   
    28    14    38 1   
    29    14    39 1   
    30    14    40 1   
    31    15    41 1   
    32    15    42 1   
    33    15    43 1   
    34    16    17 3   
    35    17    18 1   
    36    18    19 ar  
    37    18    25 ar  
    38    19    20 1   
    39    19    21 ar  
    40    20    44 1   
    41    20    45 1   
    42    20    46 1   
    43    21    22 ar  
    44    22    23 1   
    45    22    24 ar  
    46    23    47 1   
    47    23    48 1   
    48    24    25 ar  
    49    25    26 1   
    50    26    49 1   
    51    26    50 1   
@<TRIPOS>SUBSTRUCTURE
     1 55V         1 TEMP              0 ****  ****    0 ROOT
