@<TRIPOS>MOLECULE
55W
   63    67     1     0     0
SMALL
No Charge or Current Charge


@<TRIPOS>ATOM
      1 C1          -2.8910     0.7980    -0.1700 ca         1 55W      -0.063000
      2 C2          -3.8030    -0.2520     0.0890 ca         1 55W      -0.161900
      3 C3          -1.5040     0.5870    -0.0870 ca         1 55W      -0.149500
      4 C4          -3.2780    -1.5190     0.4350 ca         1 55W      -0.063000
      5 C5          -0.9880    -0.6770     0.2560 ca         1 55W       0.088800
      6 C6          -1.8900    -1.7270     0.5160 ca         1 55W      -0.149500
      7 C8           1.0230    -2.0380    -0.1350 cc         1 55W      -0.126000
      8 O14          4.5620    -2.4010     0.3710 o          1 55W      -0.726000
      9 C15         -5.2580    -0.0210     0.0000 cc         1 55W       0.485200
     10 C16         -6.2510    -1.0140     0.2430 cc         1 55W      -0.398600
     11 C17         -7.4380    -0.4050     0.0620 cd         1 55W       0.421500
     12 C21         -9.6160    -0.1560    -0.0150 cc         1 55W       0.433300
     13 C23         -8.1690     1.7810    -0.5160 cd         1 55W       0.416000
     14 O28          3.2970     1.6630    -0.8170 os         1 55W      -0.593400
     15 O29          3.5840     2.5760     1.5940 o          1 55W      -0.600000
     16 C30          3.4470     2.9430    -1.4410 c3         1 55W       0.201900
     17 C31          8.4610     0.9390     0.1790 ca         1 55W      -0.041300
     18 C32          7.8780     1.4930     1.3270 ca         1 55W      -0.146000
     19 C33          7.6310     0.4930    -0.8620 ca         1 55W      -0.142000
     20 C34          6.4850     1.6130     1.4270 ca         1 55W      -0.035000
     21 C35          6.2280     0.6000    -0.7810 ca         1 55W       0.029700
     22 C36          5.6410     1.1870     0.3760 ca         1 55W      -0.357500
     23 P27          3.8500     1.4360     0.6780 py         1 55W       1.292200
     24 C10          2.3730    -0.5550     0.8260 cd         1 55W       0.564900
     25 C9           2.3330    -1.8150     0.2110 cd         1 55W      -0.254600
     26 O13          3.2320    -3.8030    -0.5770 o          1 55W      -0.726000
     27 N11          1.2100     0.0300     0.9630 nc         1 55W      -0.623800
     28 N7           0.3960    -0.8880     0.3310 na         1 55W       0.191000
     29 N19         -5.7640     1.1740    -0.3210 nd         1 55W      -0.627100
     30 N18         -7.1250     0.8830    -0.2750 na         1 55W       0.066900
     31 N24         -7.9020     3.0770    -0.8510 nv         1 55W      -1.115000
     32 C22         -9.4210     1.2300    -0.3740 cc         1 55W      -0.360000
     33 C25        -11.0390    -0.6240     0.1000 c3         1 55W      -0.145400
     34 N20         -8.6470    -1.0400     0.2220 nd         1 55W      -0.704000
     35 H1          -3.2500     1.7890    -0.4390 ha         1 55W       0.112000
     36 H2          -0.8250     1.4120    -0.2950 ha         1 55W       0.137000
     37 H3          -3.9340    -2.3590     0.6460 ha         1 55W       0.112000
     38 H4          -1.5170    -2.7110     0.7920 ha         1 55W       0.137000
     39 H5           0.5180    -2.8600    -0.6280 h4         1 55W       0.156000
     40 H6          -6.0930    -2.0450     0.5210 ha         1 55W       0.226000
     41 H7           2.9130     3.7190    -0.8770 h1         1 55W       0.029700
     42 H8           4.5060     3.2260    -1.5040 h1         1 55W       0.029700
     43 H9           3.0390     2.9200    -2.4590 h1         1 55W       0.029700
     44 H10          8.5060     1.8330     2.1480 ha         1 55W       0.104000
     45 H11          8.0850     0.0500    -1.7450 ha         1 55W       0.104000
     46 H12          6.0640     2.0500     2.3320 ha         1 55W       0.136000
     47 H13          4.5070    -0.4630    -1.6200 hc         1 55W       0.064700
     48 H14          5.1330     0.8440    -2.6460 hc         1 55W       0.064700
     49 H15          5.9930    -0.6910    -2.5230 hc         1 55W       0.064700
     50 H16         10.3040    -0.1760     0.4260 hc         1 55W       0.038033
     51 H17         10.3070     0.9170    -0.9690 hc         1 55W       0.038033
     52 H18         10.4860     1.5710     0.6640 hc         1 55W       0.038033
     53 H19          4.2630    -0.6460     1.1270 hn         1 55W       0.563000
     54 H21         -8.6280     3.7780    -0.7170 hn         1 55W       0.514000
     55 H22         -6.9390     3.3920    -0.7400 hn         1 55W       0.514000
     56 H23        -10.3000     1.8420    -0.5390 ha         1 55W       0.126000
     57 H24        -11.5660    -0.4940    -0.8520 hc         1 55W       0.050033
     58 H25        -11.0990    -1.6840     0.3750 hc         1 55W       0.050033
     59 H26        -11.5730    -0.0490     0.8650 hc         1 55W       0.050033
     60 N26          3.4840    -0.0300     1.3480 nu         1 55W      -0.984200
     61 C37          5.4180     0.0460    -1.9500 c3         1 55W      -0.085800
     62 C12          3.4540    -2.7400    -0.0190 c          1 55W       0.748600
     63 C38          9.9720     0.8060     0.0690 c3         1 55W      -0.047800
@<TRIPOS>BOND
     1     1     2 ar  
     2     1     3 ar  
     3     1    35 1   
     4     2     4 ar  
     5     2     9 1   
     6     3     5 ar  
     7     3    36 1   
     8     4     6 ar  
     9     4    37 1   
    10     5     6 ar  
    11     5    28 1   
    12     6    38 1   
    13     7    25 2   
    14     7    28 1   
    15     7    39 1   
    16     8    62 1   
    17     9    10 1   
    18     9    29 2   
    19    10    11 2   
    20    10    40 1   
    21    11    30 1   
    22    11    34 1   
    23    12    32 1   
    24    12    33 1   
    25    12    34 2   
    26    13    30 1   
    27    13    31 1   
    28    13    32 2   
    29    14    16 1   
    30    14    23 1   
    31    15    23 2   
    32    16    41 1   
    33    16    42 1   
    34    16    43 1   
    35    17    18 ar  
    36    17    19 ar  
    37    17    63 1   
    38    18    20 ar  
    39    18    44 1   
    40    19    21 ar  
    41    19    45 1   
    42    20    22 ar  
    43    20    46 1   
    44    21    22 ar  
    45    21    61 1   
    46    22    23 1   
    47    23    60 1   
    48    24    25 1   
    49    24    27 2   
    50    24    60 1   
    51    25    62 1   
    52    26    62 1   
    53    27    28 1   
    54    29    30 1   
    55    31    54 1   
    56    31    55 1   
    57    32    56 1   
    58    33    57 1   
    59    33    58 1   
    60    33    59 1   
    61    47    61 1   
    62    48    61 1   
    63    49    61 1   
    64    50    63 1   
    65    51    63 1   
    66    52    63 1   
    67    53    60 1   
@<TRIPOS>SUBSTRUCTURE
     1 55W         1 TEMP              0 ****  ****    0 ROOT
