@<TRIPOS>MOLECULE
55W
   63    67     1     0     0
SMALL
bcc


@<TRIPOS>ATOM
      1 C1          -2.8170     0.3800    -0.0320 ca         1 55W      -0.081000
      2 C2          -3.7970    -0.6050     0.0950 ca         1 55W      -0.161900
      3 C3          -1.4720     0.0640     0.0110 ca         1 55W      -0.167500
      4 C4          -3.3800    -1.9230     0.2720 ca         1 55W      -0.081000
      5 C5          -1.0720    -1.2590     0.1890 ca         1 55W       0.088800
      6 C6          -2.0380    -2.2530     0.3250 ca         1 55W      -0.167500
      7 C8           0.8740    -2.7900     0.1490 cc         1 55W      -0.093300
      8 O14          4.4980    -3.1310     0.2330 o          1 55W      -0.831300
      9 C15         -5.2200    -0.2660     0.0460 cc         1 55W       0.485200
     10 C16         -6.3140    -1.1330     0.1980 cc         1 55W      -0.348600
     11 C17         -7.4360    -0.3280     0.0680 cd         1 55W       0.421500
     12 C21         -9.5540     0.4570    -0.0460 cc         1 55W       0.498600
     13 C23         -7.7420     2.0220    -0.3190 cd         1 55W       0.328300
     14 O28          3.1630     1.5580    -0.9440 os         1 55W      -0.570200
     15 O29          3.2830     1.8350     1.6230 o          1 55W      -0.829300
     16 C30          2.9440     2.9460    -1.1770 c3         1 55W       0.178700
     17 C31          8.3800     1.7040     0.1850 ca         1 55W      -0.041300
     18 C32          7.6180     2.2320     1.2190 ca         1 55W      -0.164000
     19 C33          7.7310     0.9560    -0.7960 ca         1 55W      -0.160000
     20 C34          6.2510     2.0130     1.2610 ca         1 55W      -0.053000
     21 C35          6.3620     0.7160    -0.7790 ca         1 55W       0.029700
     22 C36          5.6090     1.2590     0.2790 ca         1 55W      -0.357500
     23 P27          3.8240     1.0930     0.4520 py         1 55W       1.521500
     24 C10          2.3620    -1.1930     0.3230 cd         1 55W       0.630200
     25 C9           2.2300    -2.6020     0.2080 cd         1 55W      -0.319900
     26 O13          3.0250    -4.8000     0.0420 o          1 55W      -0.831300
     27 N11          1.2030    -0.5820     0.3380 nc         1 55W      -0.623800
     28 N7           0.2910    -1.5740     0.2290 na         1 55W       0.140300
     29 N19         -5.6010     0.9910    -0.1630 nd         1 55W      -0.627100
     30 N18         -6.9360     0.9410    -0.1480 na         1 55W       0.016200
     31 N24         -7.1600     3.2000    -0.5190 nv         1 55W      -0.866200
     32 C22         -9.1020     1.7660    -0.2650 cc         1 55W      -0.443300
     33 C25        -11.0260     0.1830    -0.0230 c3         1 55W      -0.145400
     34 N20         -8.7490    -0.5770     0.1210 nd         1 55W      -0.704000
     35 H1          -3.1070     1.4120    -0.1710 ha         1 55W       0.130000
     36 H2          -0.7310     0.8430    -0.0930 ha         1 55W       0.155000
     37 H3          -4.1070    -2.7170     0.3780 ha         1 55W       0.130000
     38 H4          -1.7610    -3.2860     0.4840 ha         1 55W       0.155000
     39 H5           0.3040    -3.6980     0.0400 h4         1 55W       0.174000
     40 H6          -6.3100    -2.1950     0.3770 ha         1 55W       0.176000
     41 H7           2.1870     3.3490    -0.5040 h1         1 55W       0.029700
     42 H8           3.8620     3.5290    -1.0680 h1         1 55W       0.029700
     43 H9           2.5940     3.0450    -2.2020 h1         1 55W       0.029700
     44 H10          8.0910     2.8200     1.9970 ha         1 55W       0.122000
     45 H11          8.3160     0.5430    -1.6110 ha         1 55W       0.122000
     46 H12          5.6750     2.4360     2.0740 ha         1 55W       0.154000
     47 H13          5.5330    -1.1320    -1.5260 hc         1 55W       0.064700
     48 H14          4.8560     0.2980    -2.2820 hc         1 55W       0.064700
     49 H15          6.4830    -0.2320    -2.6950 hc         1 55W       0.064700
     50 H16         10.3930     0.9940     0.3900 hc         1 55W       0.038033
     51 H17         10.1840     2.1820    -0.8840 hc         1 55W       0.038033
     52 H18         10.1900     2.6920     0.8060 hc         1 55W       0.038033
     53 H19          4.3410    -1.2190     0.4240 hn         1 55W       0.507800
     54 H21         -7.7140     4.0300    -0.6370 hn         1 55W       0.458800
     55 H22         -6.1570     3.2860    -0.5130 hn         1 55W       0.458800
     56 H23         -9.8010     2.5810    -0.3880 ha         1 55W       0.144000
     57 H24        -11.3670    -0.1080    -1.0190 hc         1 55W       0.050033
     58 H25        -11.2580    -0.6360     0.6550 hc         1 55W       0.050033
     59 H26        -11.5960     1.0610     0.2740 hc         1 55W       0.050033
     60 N26          3.5700    -0.5470     0.4170 nu         1 55W      -0.929000
     61 C37          5.7720    -0.1270    -1.8770 c3         1 55W      -0.085800
     62 C12          3.3350    -3.6040     0.1550 c          1 55W       0.959200
     63 C38          9.8640     1.9100     0.1220 c3         1 55W      -0.047800
@<TRIPOS>BOND
     1     1     2 ar  
     2     1     3 ar  
     3     1    35 1   
     4     2     4 ar  
     5     2     9 1   
     6     3     5 ar  
     7     3    36 1   
     8     4     6 ar  
     9     4    37 1   
    10     5     6 ar  
    11     5    28 1   
    12     6    38 1   
    13     7    25 2   
    14     7    28 1   
    15     7    39 1   
    16     8    62 1   
    17     9    10 1   
    18     9    29 2   
    19    10    11 2   
    20    10    40 1   
    21    11    30 1   
    22    11    34 1   
    23    12    32 1   
    24    12    33 1   
    25    12    34 2   
    26    13    30 1   
    27    13    31 1   
    28    13    32 2   
    29    14    16 1   
    30    14    23 1   
    31    15    23 2   
    32    16    41 1   
    33    16    42 1   
    34    16    43 1   
    35    17    18 ar  
    36    17    19 ar  
    37    17    63 1   
    38    18    20 ar  
    39    18    44 1   
    40    19    21 ar  
    41    19    45 1   
    42    20    22 ar  
    43    20    46 1   
    44    21    22 ar  
    45    21    61 1   
    46    22    23 1   
    47    23    60 1   
    48    24    25 1   
    49    24    27 2   
    50    24    60 1   
    51    25    62 1   
    52    26    62 1   
    53    27    28 1   
    54    29    30 1   
    55    31    54 1   
    56    31    55 1   
    57    32    56 1   
    58    33    57 1   
    59    33    58 1   
    60    33    59 1   
    61    47    61 1   
    62    48    61 1   
    63    49    61 1   
    64    50    63 1   
    65    51    63 1   
    66    52    63 1   
    67    53    60 1   
@<TRIPOS>SUBSTRUCTURE
     1 55W         1 TEMP              0 ****  ****    0 ROOT
