@<TRIPOS>MOLECULE
55Y
   40    43     1     0     0
SMALL
abcg2


@<TRIPOS>ATOM
      1 N1          -9.0880   -16.5980   -17.2650 na         1 55Y       0.120800
      2 N3          -1.4110   -10.4670   -17.3150 ns         1 55Y      -0.540900
      3 C4          -7.0850   -13.6850   -16.4300 ca         1 55Y       0.077000
      4 C5          -7.8710   -12.5730   -16.2300 ca         1 55Y      -0.132000
      5 C6          -7.2520   -11.3320   -15.9470 ca         1 55Y       0.009000
      6 C7          -5.4230    -9.9470   -15.5850 cc         1 55Y      -0.197400
      7 C8          -5.8160   -11.2420   -15.8680 ca         1 55Y      -0.132000
      8 C10         -8.9940   -15.2680   -17.0860 cc         1 55Y      -0.138000
      9 C13         -1.4710   -12.6760   -16.6370 c5         1 55Y       0.153300
     10 C15         -1.0000   -10.4980   -16.0360 c          1 55Y       0.700100
     11 O1          -0.6970    -9.5730   -15.3070 o          1 55Y      -0.540000
     12 C14         -1.6200   -11.7810   -17.8870 c5         1 55Y       0.086000
     13 O2          -0.9490   -11.7930   -15.6130 os         1 55Y      -0.416100
     14 C1          -2.7750   -13.3040   -16.1720 c3         1 55Y       0.165300
     15 C           -2.6300   -14.1170   -14.8980 c3         1 55Y      -0.115100
     16 O           -3.6920   -12.2120   -15.9850 os         1 55Y      -0.347100
     17 C2          -5.0260   -12.4130   -16.0740 ca         1 55Y       0.194100
     18 S           -6.8060    -8.9870   -15.4420 ss         1 55Y       0.303900
     19 N           -7.9040   -10.1780   -15.7330 nc         1 55Y      -0.298500
     20 C3          -5.6540   -13.5960   -16.3470 ca         1 55Y      -0.228000
     21 C9          -7.6780   -14.9870   -16.7300 cd         1 55Y      -0.168000
     22 C12         -7.0580   -16.2590   -16.7260 cd         1 55Y       0.259900
     23 N2          -7.9130   -17.2260   -17.0460 nc         1 55Y      -0.525800
     24 C11        -10.2610   -17.3580   -17.6530 c3         1 55Y       0.075900
     25 H1          -8.9500   -12.6270   -16.2730 ha         1 55Y       0.129000
     26 H2          -4.4240    -9.5580   -15.4650 h4         1 55Y       0.242000
     27 H3          -9.8450   -14.6250   -17.2330 h4         1 55Y       0.157000
     28 H4          -0.7390   -13.4670   -16.7890 h1         1 55Y       0.085700
     29 H6          -3.1250   -13.9340   -16.9950 h1         1 55Y       0.050700
     30 H7          -3.5890   -14.5360   -14.5970 hc         1 55Y       0.057367
     31 H8          -1.9320   -14.9390   -15.0620 hc         1 55Y       0.057367
     32 H9          -2.2510   -13.4910   -14.0900 hc         1 55Y       0.057367
     33 H10         -5.0760   -14.4920   -16.5110 ha         1 55Y       0.116000
     34 H11         -6.0330   -16.5070   -16.4970 h4         1 55Y       0.035100
     35 H12        -10.0690   -17.8850   -18.5870 h1         1 55Y       0.058033
     36 H13        -10.5090   -18.0790   -16.8750 h1         1 55Y       0.058033
     37 H14        -11.0900   -16.6680   -17.7880 h1         1 55Y       0.058033
     38 H15         -2.6100   -11.8720   -18.3320 h1         1 55Y       0.060200
     39 H16         -0.8680   -12.0160   -18.6420 h1         1 55Y       0.060200
     40 H5          -1.4640    -9.6060   -17.8330 hn         1 55Y       0.351500
@<TRIPOS>BOND
     1     1     8 1   
     2     1    23 1   
     3     1    24 1   
     4     2    10 1   
     5     2    12 1   
     6     2    40 1   
     7     3     4 ar  
     8     3    20 ar  
     9     3    21 1   
    10     4     5 ar  
    11     4    25 1   
    12     5     7 ar  
    13     5    19 2   
    14     6     7 2   
    15     6    18 1   
    16     6    26 1   
    17     7    17 ar  
    18     8    21 2   
    19     8    27 1   
    20     9    12 1   
    21     9    13 1   
    22     9    14 1   
    23     9    28 1   
    24    10    11 2   
    25    10    13 1   
    26    12    38 1   
    27    12    39 1   
    28    14    15 1   
    29    14    16 1   
    30    14    29 1   
    31    15    30 1   
    32    15    31 1   
    33    15    32 1   
    34    16    17 1   
    35    17    20 ar  
    36    18    19 1   
    37    20    33 1   
    38    21    22 1   
    39    22    23 2   
    40    22    34 1   
    41    24    35 1   
    42    24    36 1   
    43    24    37 1   
@<TRIPOS>SUBSTRUCTURE
     1 55Y         1 TEMP              0 ****  ****    0 ROOT
