@<TRIPOS>MOLECULE
55Y
   40    43     1     0     0
SMALL
No Charge or Current Charge


@<TRIPOS>ATOM
      1 N1          -9.1320   -16.6190   -17.2790 na         1 55Y       0.120800
      2 N3          -1.2520   -10.5140   -17.3980 ns         1 55Y      -0.540900
      3 C4          -7.0790   -13.7290   -16.5160 ca         1 55Y       0.077000
      4 C5          -7.8730   -12.5980   -16.2150 ca         1 55Y      -0.132000
      5 C6          -7.2680   -11.3740   -15.8960 ca         1 55Y       0.009000
      6 C7          -5.4780    -9.9580   -15.5280 cc         1 55Y      -0.197400
      7 C8          -5.8900   -11.2820   -15.8730 ca         1 55Y      -0.132000
      8 C10         -9.0580   -15.2760   -16.9250 cc         1 55Y      -0.138000
      9 C13         -1.3370   -12.6510   -16.5210 c5         1 55Y       0.153300
     10 C15         -1.0840   -10.4160   -16.0520 c          1 55Y       0.700100
     11 O1          -0.9280    -9.3730   -15.4440 o          1 55Y      -0.540000
     12 C14         -1.2880   -11.8870   -17.8790 c5         1 55Y       0.086000
     13 O2          -0.9680   -11.6620   -15.5250 os         1 55Y      -0.416100
     14 C1          -2.7320   -13.2670   -16.1910 c3         1 55Y       0.165300
     15 C           -2.7610   -14.0310   -14.8460 c3         1 55Y      -0.115100
     16 O           -3.6930   -12.1910   -16.1190 os         1 55Y      -0.347100
     17 C2          -5.0620   -12.3780   -16.1570 ca         1 55Y       0.194100
     18 S           -6.8900    -8.9550   -15.2650 ss         1 55Y       0.303900
     19 N           -7.9840   -10.2150   -15.5920 nc         1 55Y      -0.298500
     20 C3          -5.6700   -13.6090   -16.4880 ca         1 55Y      -0.228000
     21 C9          -7.7140   -15.0180   -16.8570 cd         1 55Y      -0.168000
     22 C12         -7.0640   -16.2350   -17.1760 cd         1 55Y       0.259900
     23 N2          -7.9020   -17.2200   -17.4360 nc         1 55Y      -0.525800
     24 C11        -10.3620   -17.3970   -17.4850 c3         1 55Y       0.075900
     25 H1          -8.9560   -12.6630   -16.2300 ha         1 55Y       0.129000
     26 H2          -4.4970    -9.5150   -15.4130 h4         1 55Y       0.242000
     27 H3          -9.9320   -14.6580   -16.7630 h4         1 55Y       0.157000
     28 H4          -0.5960   -13.4610   -16.5070 h1         1 55Y       0.085700
     29 H6          -2.9780   -13.9570   -17.0080 h1         1 55Y       0.050700
     30 H7          -3.7360   -14.5000   -14.6740 hc         1 55Y       0.057367
     31 H8          -2.0030   -14.8220   -14.8410 hc         1 55Y       0.057367
     32 H9          -2.5550   -13.3530   -14.0090 hc         1 55Y       0.057367
     33 H10         -5.0610   -14.4710   -16.7270 ha         1 55Y       0.116000
     34 H11         -6.0010   -16.4340   -17.2270 h4         1 55Y       0.035100
     35 H12        -10.3840   -17.7830   -18.5110 h1         1 55Y       0.058033
     36 H13        -10.3870   -18.2360   -16.7790 h1         1 55Y       0.058033
     37 H14        -11.2380   -16.7590   -17.3190 h1         1 55Y       0.058033
     38 H15         -2.1660   -12.0930   -18.5060 h1         1 55Y       0.060200
     39 H16         -0.3860   -12.1440   -18.4510 h1         1 55Y       0.060200
     40 H5          -1.3020    -9.6680   -17.9530 hn         1 55Y       0.351500
@<TRIPOS>BOND
     1     1     8 1   
     2     1    23 1   
     3     1    24 1   
     4     2    10 1   
     5     2    12 1   
     6     2    40 1   
     7     3     4 ar  
     8     3    20 ar  
     9     3    21 1   
    10     4     5 ar  
    11     4    25 1   
    12     5     7 ar  
    13     5    19 2   
    14     6     7 2   
    15     6    18 1   
    16     6    26 1   
    17     7    17 ar  
    18     8    21 2   
    19     8    27 1   
    20     9    12 1   
    21     9    13 1   
    22     9    14 1   
    23     9    28 1   
    24    10    11 2   
    25    10    13 1   
    26    12    38 1   
    27    12    39 1   
    28    14    15 1   
    29    14    16 1   
    30    14    29 1   
    31    15    30 1   
    32    15    31 1   
    33    15    32 1   
    34    16    17 1   
    35    17    20 ar  
    36    18    19 1   
    37    20    33 1   
    38    21    22 1   
    39    22    23 2   
    40    22    34 1   
    41    24    35 1   
    42    24    36 1   
    43    24    37 1   
@<TRIPOS>SUBSTRUCTURE
     1 55Y         1 TEMP              0 ****  ****    0 ROOT
