@<TRIPOS>MOLECULE
55Z
   65    68     1     0     0
SMALL
No Charge or Current Charge


@<TRIPOS>ATOM
      1 C10        138.9700   152.8450   153.7050 ca         1 55Z      -0.234800
      2 N12        139.6610   154.5130   155.2680 nb         1 55Z      -0.210000
      3 C13        140.8780   153.9220   155.2590 ca         1 55Z       0.251300
      4 C15        140.2460   152.3190   153.7630 ca         1 55Z       0.186300
      5 C20        136.6880   154.9390   155.7010 ca         1 55Z      -0.096000
      6 C21        135.4610   155.6400   155.7270 ca         1 55Z      -0.027000
      7 C22        134.9370   156.1380   154.5190 ca         1 55Z      -0.155000
      8 C24        136.8450   155.2620   153.2950 ca         1 55Z      -0.111000
      9 C26        134.9570   155.6000   158.2530 c          1 55Z       0.561100
     10 C28        133.7900   156.0490   159.1930 c3         1 55Z       0.129800
     11 C1         137.6950   146.9150   150.7190 c3         1 55Z      -0.103433
     12 C2         138.7470   147.8560   150.0790 c3         1 55Z       0.142400
     13 C3         140.0810   147.0900   149.9220 c3         1 55Z      -0.103433
     14 C4         138.2720   148.3350   148.6840 c3         1 55Z      -0.103433
     15 N5         139.0130   149.0030   150.9550 ns         1 55Z      -0.500900
     16 O7         136.9440   149.9860   151.0540 o          1 55Z      -0.654100
     17 C8         138.7710   150.9690   152.2600 cc         1 55Z      -0.290600
     18 C9         138.1280   152.0420   152.8440 cd         1 55Z       0.293800
     19 C11        138.6940   154.0020   154.4780 cp         1 55Z       0.251500
     20 N14        141.2200   152.8410   154.5280 nb         1 55Z      -0.147000
     21 S16        140.4960   150.8890   152.7360 ss         1 55Z      -0.114900
     22 S17        142.1600   154.6170   156.3000 ss         1 55Z      -0.287300
     23 C18        141.3150   155.9830   157.2220 c3         1 55Z       0.019900
     24 C19        137.3890   154.7280   154.4870 cp         1 55Z      -0.149500
     25 C23        135.6250   155.9550   153.3100 ca         1 55Z      -0.087000
     26 O27        135.9870   155.0670   158.6600 o          1 55Z      -0.577100
     27 N29        133.8860   155.8390   160.6820 n3         1 55Z      -0.763600
     28 C30        134.9650   156.6370   161.3540 c6         1 55Z       0.162300
     29 C31        135.0350   156.3940   162.9000 c6         1 55Z       0.148600
     30 O32        133.9890   155.4970   163.3520 os         1 55Z      -0.459000
     31 C33        134.0070   154.2220   162.6610 c6         1 55Z       0.148600
     32 C34        133.9060   154.4010   161.1080 c6         1 55Z       0.162300
     33 N35        136.8060   152.2770   152.6680 nv         1 55Z      -0.934000
     34 H1         137.1180   154.5360   156.6120 ha         1 55Z       0.160000
     35 H2         133.9930   156.6790   154.5170 ha         1 55Z       0.111000
     36 H3         137.3780   155.1390   152.3530 ha         1 55Z       0.134000
     37 H4         133.6350   157.1170   158.9900 h1         1 55Z       0.066200
     38 H5         132.8910   155.5430   158.8170 h1         1 55Z       0.066200
     39 H6         138.0060   146.6100   151.7250 hc         1 55Z       0.044144
     40 H7         136.7150   147.3980   150.7980 hc         1 55Z       0.044144
     41 H8         137.5680   146.0090   150.1140 hc         1 55Z       0.044144
     42 H9         140.4500   146.7420   150.8950 hc         1 55Z       0.044144
     43 H10        139.9560   146.2130   149.2750 hc         1 55Z       0.044144
     44 H11        140.8520   147.7310   149.4770 hc         1 55Z       0.044144
     45 H12        137.2980   148.8350   148.7380 hc         1 55Z       0.044144
     46 H13        138.9920   149.0370   148.2470 hc         1 55Z       0.044144
     47 H14        138.1680   147.4860   147.9980 hc         1 55Z       0.044144
     48 H15        139.9550   149.1170   151.3020 hn         1 55Z       0.310500
     49 H16        142.0300   156.4680   157.8990 h1         1 55Z       0.073700
     50 H17        140.9300   156.7290   156.5160 h1         1 55Z       0.073700
     51 H18        140.4830   155.5780   157.8100 h1         1 55Z       0.073700
     52 H19        135.2160   156.3550   152.3840 ha         1 55Z       0.121000
     53 H20        133.8200   156.3280   156.7420 hn         1 55Z       0.149000
     54 H21        135.9490   156.3940   160.9290 h1         1 55Z       0.048200
     55 H22        136.0130   155.9640   163.1620 h1         1 55Z       0.051700
     56 H23        133.1670   153.6110   163.0200 h1         1 55Z       0.051700
     57 H24        134.9370   153.6920   162.9120 h1         1 55Z       0.051700
     58 H25        132.9970   153.8910   160.7570 h1         1 55Z       0.048200
     59 H26        134.7550   153.8730   160.6520 h1         1 55Z       0.048200
     60 H27        136.3320   153.0170   153.1770 hn         1 55Z       0.500500
     61 H28        136.2620   151.6280   152.0980 hn         1 55Z       0.500500
     62 H29        134.8050   157.7110   161.1770 h1         1 55Z       0.048200
     63 H30        134.9380   157.3510   163.4310 h1         1 55Z       0.051700
     64 C6         138.1250   149.9690   151.3770 c          1 55Z       0.666300
     65 N25        134.7090   155.8750   156.9120 ns         1 55Z      -0.151000
@<TRIPOS>BOND
     1     1     4 ar  
     2     1    18 1   
     3     1    19 ar  
     4     2     3 ar  
     5     2    19 ar  
     6     3    20 ar  
     7     3    22 1   
     8     4    20 ar  
     9     4    21 1   
    10     5     6 ar  
    11     5    24 ar  
    12     5    34 1   
    13     6     7 ar  
    14     6    65 1   
    15     7    25 ar  
    16     7    35 1   
    17     8    24 ar  
    18     8    25 ar  
    19     8    36 1   
    20     9    10 1   
    21     9    26 2   
    22     9    65 1   
    23    10    27 1   
    24    10    37 1   
    25    10    38 1   
    26    11    12 1   
    27    11    39 1   
    28    11    40 1   
    29    11    41 1   
    30    12    13 1   
    31    12    14 1   
    32    12    15 1   
    33    13    42 1   
    34    13    43 1   
    35    13    44 1   
    36    14    45 1   
    37    14    46 1   
    38    14    47 1   
    39    15    48 1   
    40    15    64 1   
    41    16    64 2   
    42    17    18 2   
    43    17    21 1   
    44    17    64 1   
    45    18    33 1   
    46    19    24 1   
    47    22    23 1   
    48    23    49 1   
    49    23    50 1   
    50    23    51 1   
    51    25    52 1   
    52    27    28 1   
    53    27    32 1   
    54    28    29 1   
    55    28    54 1   
    56    28    62 1   
    57    29    30 1   
    58    29    55 1   
    59    29    63 1   
    60    30    31 1   
    61    31    32 1   
    62    31    56 1   
    63    31    57 1   
    64    32    58 1   
    65    32    59 1   
    66    33    60 1   
    67    33    61 1   
    68    53    65 1   
@<TRIPOS>SUBSTRUCTURE
     1 55Z         1 TEMP              0 ****  ****    0 ROOT
