@<TRIPOS>MOLECULE
55Z
   65    68     1     0     0
SMALL
bcc


@<TRIPOS>ATOM
      1 C10        138.7470   152.6080   153.9430 ca         1 55Z      -0.365400
      2 N12        139.3160   154.1060   155.6850 nb         1 55Z      -0.736000
      3 C13        140.4920   153.4980   155.7660 ca         1 55Z       0.777300
      4 C15        140.0480   152.0970   154.0990 ca         1 55Z       0.514600
      5 C20        136.5110   154.7790   155.8540 ca         1 55Z      -0.114000
      6 C21        135.3710   155.5780   155.8130 ca         1 55Z       0.065600
      7 C22        134.9590   156.1070   154.5850 ca         1 55Z      -0.173000
      8 C24        136.8020   155.0440   153.4640 ca         1 55Z      -0.129000
      9 C26        134.8290   155.6230   158.2460 c          1 55Z       0.628100
     10 C28        133.7190   156.1440   159.1640 c3         1 55Z       0.129800
     11 C1         137.8140   147.0180   150.3880 c3         1 55Z      -0.103433
     12 C2         138.8790   147.9930   149.8830 c3         1 55Z       0.142400
     13 C3         140.1940   147.2360   149.7030 c3         1 55Z      -0.103433
     14 C4         138.4660   148.5990   148.5410 c3         1 55Z      -0.103433
     15 N5         139.1520   149.0410   150.8760 ns         1 55Z      -0.567900
     16 O7         137.0880   149.9680   151.0000 o          1 55Z      -0.654100
     17 C8         138.7550   150.8800   152.3670 cc         1 55Z      -0.290600
     18 C9         137.9840   151.8620   152.9610 cd         1 55Z       0.293800
     19 C11        138.4480   153.7040   154.7660 cp         1 55Z       0.579800
     20 N14        140.9290   152.5260   154.9810 nb         1 55Z      -0.673000
     21 S16        140.3890   150.8130   153.0120 ss         1 55Z      -0.114900
     22 S17        141.6300   153.9900   156.9960 ss         1 55Z      -0.239400
     23 C18        140.7640   155.3350   157.8300 c3         1 55Z      -0.028000
     24 C19        137.2100   154.5070   154.6790 cp         1 55Z      -0.149500
     25 C23        135.6720   155.8480   153.4300 ca         1 55Z      -0.105000
     26 O27        135.8000   155.0190   158.6580 o          1 55Z      -0.577100
     27 N29        133.9680   156.0590   160.5630 n3         1 55Z      -0.763600
     28 C30        134.9740   156.9570   161.0890 c6         1 55Z       0.162300
     29 C31        135.0280   156.8130   162.5980 c6         1 55Z       0.125400
     30 O32        135.3470   155.4980   163.0200 os         1 55Z      -0.412600
     31 C33        135.1880   154.5060   162.0260 c6         1 55Z       0.125400
     32 C34        133.9550   154.7340   161.1710 c6         1 55Z       0.162300
     33 N35        136.6900   152.1100   152.6740 nv         1 55Z      -0.823600
     34 H1         136.8610   154.3590   156.7830 ha         1 55Z       0.178000
     35 H2         134.0760   156.7330   154.5400 ha         1 55Z       0.129000
     36 H3         137.3660   154.8560   152.5600 ha         1 55Z       0.152000
     37 H4         133.5100   157.1870   158.8970 h1         1 55Z       0.066200
     38 H5         132.8040   155.5930   158.9170 h1         1 55Z       0.066200
     39 H6         138.1060   146.5920   151.3500 hc         1 55Z       0.044144
     40 H7         136.8430   147.4940   150.5020 hc         1 55Z       0.044144
     41 H8         137.7060   146.1970   149.6780 hc         1 55Z       0.044144
     42 H9         140.5270   146.7880   150.6420 hc         1 55Z       0.044144
     43 H10        140.0640   146.4330   148.9770 hc         1 55Z       0.044144
     44 H11        140.9860   147.8920   149.3340 hc         1 55Z       0.044144
     45 H12        137.5220   149.1350   148.6080 hc         1 55Z       0.044144
     46 H13        139.2290   149.2890   148.1780 hc         1 55Z       0.044144
     47 H14        138.3490   147.8080   147.7990 hc         1 55Z       0.044144
     48 H15        140.1110   149.0970   151.1790 hn         1 55Z       0.310500
     49 H16        141.4340   155.6710   158.6190 h1         1 55Z       0.073700
     50 H17        140.5720   156.1610   157.1500 h1         1 55Z       0.073700
     51 H18        139.8330   154.9940   158.2730 h1         1 55Z       0.073700
     52 H19        135.3440   156.2810   152.4940 ha         1 55Z       0.139000
     53 H20        133.7700   156.4350   156.7320 hn         1 55Z       0.315500
     54 H21        135.9760   156.8030   160.6660 h1         1 55Z       0.048200
     55 H22        135.7800   157.4960   163.0020 h1         1 55Z       0.051700
     56 H23        135.1030   153.5470   162.5410 h1         1 55Z       0.051700
     57 H24        136.0720   154.4520   161.3800 h1         1 55Z       0.051700
     58 H25        133.0580   154.6070   161.7900 h1         1 55Z       0.048200
     59 H26        133.9200   153.9480   160.4120 h1         1 55Z       0.048200
     60 H27        136.1270   152.6080   153.3420 hn         1 55Z       0.445300
     61 H28        136.2210   151.4180   152.1110 hn         1 55Z       0.445300
     62 H29        134.6920   157.9880   160.8570 h1         1 55Z       0.048200
     63 H30        134.0580   157.1100   163.0160 h1         1 55Z       0.051700
     64 C6         138.2670   149.9320   151.3620 c          1 55Z       0.733300
     65 N25        134.6000   155.8940   156.9320 ns         1 55Z      -0.477100
@<TRIPOS>BOND
     1     1     4 ar  
     2     1    18 1   
     3     1    19 ar  
     4     2     3 ar  
     5     2    19 ar  
     6     3    20 ar  
     7     3    22 1   
     8     4    20 ar  
     9     4    21 1   
    10     5     6 ar  
    11     5    24 ar  
    12     5    34 1   
    13     6     7 ar  
    14     6    65 1   
    15     7    25 ar  
    16     7    35 1   
    17     8    24 ar  
    18     8    25 ar  
    19     8    36 1   
    20     9    10 1   
    21     9    26 2   
    22     9    65 1   
    23    10    27 1   
    24    10    37 1   
    25    10    38 1   
    26    11    12 1   
    27    11    39 1   
    28    11    40 1   
    29    11    41 1   
    30    12    13 1   
    31    12    14 1   
    32    12    15 1   
    33    13    42 1   
    34    13    43 1   
    35    13    44 1   
    36    14    45 1   
    37    14    46 1   
    38    14    47 1   
    39    15    48 1   
    40    15    64 1   
    41    16    64 2   
    42    17    18 2   
    43    17    21 1   
    44    17    64 1   
    45    18    33 1   
    46    19    24 1   
    47    22    23 1   
    48    23    49 1   
    49    23    50 1   
    50    23    51 1   
    51    25    52 1   
    52    27    28 1   
    53    27    32 1   
    54    28    29 1   
    55    28    54 1   
    56    28    62 1   
    57    29    30 1   
    58    29    55 1   
    59    29    63 1   
    60    30    31 1   
    61    31    32 1   
    62    31    56 1   
    63    31    57 1   
    64    32    58 1   
    65    32    59 1   
    66    33    60 1   
    67    33    61 1   
    68    53    65 1   
@<TRIPOS>SUBSTRUCTURE
     1 55Z         1 TEMP              0 ****  ****    0 ROOT
