@<TRIPOS>MOLECULE
560
   56    59     1     0     0
SMALL
No Charge or Current Charge


@<TRIPOS>ATOM
      1 C4          50.6350    11.3530     2.5020 ca         1 560       0.222300
      2 C5          51.7090    11.4460     1.5830 ca         1 560      -0.222000
      3 C6          51.9860    12.7290     1.0710 ca         1 560       0.445900
      4 N1          51.2890    13.8120     1.4220 nb         1 560      -0.343000
      5 N3          49.9300    12.4470     2.8550 nb         1 560      -0.292000
      6 C2          50.3030    13.6030     2.2950 ca         1 560       0.429900
      7 CAG         52.4790    10.2870     1.2110 cg         1 560      -0.079000
      8 CAH         53.1140     9.2890     0.9400 c1         1 560      -0.165100
      9 CAI         53.8480     8.0410     0.6930 c3         1 560       0.084700
     10 CAJ         53.3950     7.3640    -0.6200 c3         1 560      -0.082100
     11 CAK         53.6970     7.1250     1.9120 ca         1 560      -0.076300
     12 CAL         52.4370     6.5540     2.2420 ca         1 560      -0.092000
     13 CAM         52.2620     5.7220     3.3830 cp         1 560      -0.015000
     14 CAN         50.9240     5.1350     3.7190 cp         1 560      -0.031000
     15 CAO         50.7980     3.8130     4.2130 ca         1 560      -0.095000
     16 CAP         49.5390     3.2670     4.5190 ca         1 560      -0.101000
     17 CAQ         48.3700     4.0280     4.3360 ca         1 560      -0.082300
     18 CAR         47.0060     3.4390     4.6770 c3         1 560       0.197100
     19 CAT         48.4760     5.3410     3.8400 ca         1 560      -0.101000
     20 CAU         49.7360     5.8840     3.5340 ca         1 560      -0.095000
     21 CAV         53.4210     5.5020     4.1650 ca         1 560       0.061100
     22 CAX         54.8920     4.7910     5.6550 c5         1 560       0.371600
     23 CAZ         54.6340     6.0500     3.8590 ca         1 560       0.052100
     24 CBA         54.8120     6.8700     2.7420 ca         1 560      -0.091000
     25 CBC         50.1960    10.0380     3.1510 c3         1 560      -0.135700
     26 CBD         51.0980     9.6130     4.3300 c3         1 560      -0.084100
     27 NAA         49.5930    14.6940     2.6520 nv         1 560      -1.065900
     28 NAE         52.9860    12.9710     0.1840 nv         1 560      -1.075900
     29 NAS         46.4590     2.6550     3.5550 n8         1 560      -0.999200
     30 OAW         53.4600     4.7860     5.3210 os         1 560      -0.340100
     31 OAY         55.5910     5.7350     4.7700 os         1 560      -0.345100
     32 H1          54.9050     8.3080     0.5690 hc         1 560       0.063700
     33 H2          53.9440     6.4280    -0.7750 hc         1 560       0.041367
     34 H3          52.3230     7.1350    -0.6060 hc         1 560       0.041367
     35 H4          53.5920     8.0180    -1.4790 hc         1 560       0.041367
     36 H5          51.5800     6.7590     1.6060 ha         1 560       0.128000
     37 H6          51.6840     3.1980     4.3470 ha         1 560       0.118000
     38 H7          49.4720     2.2490     4.8950 ha         1 560       0.119000
     39 H8          46.3030     4.2480     4.9210 h1         1 560       0.034700
     40 H9          47.0930     2.7870     5.5580 h1         1 560       0.034700
     41 H10         47.5820     5.9430     3.6940 ha         1 560       0.119000
     42 H11         49.7900     6.9020     3.1590 ha         1 560       0.118000
     43 H12         55.2970     3.7860     5.4920 h2         1 560       0.064200
     44 H13         55.0300     5.0880     6.7010 h2         1 560       0.064200
     45 H14         55.7870     7.3040     2.5310 ha         1 560       0.133000
     46 H15         49.1640    10.1210     3.5150 hc         1 560       0.060200
     47 H16         50.1790     9.2360     2.4030 hc         1 560       0.060200
     48 H17         50.7290     8.6830     4.7800 hc         1 560       0.039033
     49 H18         52.1280     9.4420     3.9960 hc         1 560       0.039033
     50 H19         51.1100    10.3880     5.1050 hc         1 560       0.039033
     51 H20         49.6860    15.5300     2.0800 hn         1 560       0.497500
     52 H21         48.6990    14.5580     3.1170 hn         1 560       0.497500
     53 H22         53.2880    13.9340     0.0590 hn         1 560       0.499500
     54 H23         53.6900    12.2490     0.0520 hn         1 560       0.499500
     55 H24         45.5040     2.3580     3.7920 hn         1 560       0.396500
     56 H25         46.3270     3.2810     2.7520 hn         1 560       0.396500
@<TRIPOS>BOND
     1     1     2 ar  
     2     1     5 ar  
     3     1    25 1   
     4     2     3 ar  
     5     2     7 1   
     6     3     4 ar  
     7     3    28 1   
     8     4     6 ar  
     9     5     6 ar  
    10     6    27 1   
    11     7     8 3   
    12     8     9 1   
    13     9    10 1   
    14     9    11 1   
    15     9    32 1   
    16    10    33 1   
    17    10    34 1   
    18    10    35 1   
    19    11    12 ar  
    20    11    24 ar  
    21    12    13 ar  
    22    12    36 1   
    23    13    14 1   
    24    13    21 ar  
    25    14    15 ar  
    26    14    20 ar  
    27    15    16 ar  
    28    15    37 1   
    29    16    17 ar  
    30    16    38 1   
    31    17    18 1   
    32    17    19 ar  
    33    18    29 1   
    34    18    39 1   
    35    18    40 1   
    36    19    20 ar  
    37    19    41 1   
    38    20    42 1   
    39    21    23 ar  
    40    21    30 1   
    41    22    30 1   
    42    22    31 1   
    43    22    43 1   
    44    22    44 1   
    45    23    24 ar  
    46    23    31 1   
    47    24    45 1   
    48    25    26 1   
    49    25    46 1   
    50    25    47 1   
    51    26    48 1   
    52    26    49 1   
    53    26    50 1   
    54    27    51 1   
    55    27    52 1   
    56    28    53 1   
    57    28    54 1   
    58    29    55 1   
    59    29    56 1   
@<TRIPOS>SUBSTRUCTURE
     1 560         1 TEMP              0 ****  ****    0 ROOT
