@<TRIPOS>MOLECULE
560
   56    59     1     0     0
SMALL
bcc


@<TRIPOS>ATOM
      1 C4          50.8050    11.4960     2.8770 ca         1 560       0.550600
      2 C5          51.5540    11.3510     1.7100 ca         1 560      -0.352600
      3 C6          51.4690    12.4160     0.7760 ca         1 560       0.774200
      4 N1          50.7270    13.4910     1.0190 nb         1 560      -0.869000
      5 N3          50.0610    12.5700     3.1130 nb         1 560      -0.818000
      6 C2          50.0640    13.5220     2.1730 ca         1 560       0.955900
      7 CAG         52.3670    10.2200     1.4540 cg         1 560      -0.079000
      8 CAH         53.0730     9.2650     1.2330 c1         1 560      -0.165100
      9 CAI         53.9020     8.0880     0.9810 c3         1 560       0.084700
     10 CAJ         53.6150     7.4930    -0.4040 c3         1 560      -0.082100
     11 CAK         53.7110     7.0650     2.0870 ca         1 560      -0.076300
     12 CAL         52.4490     6.5550     2.3500 ca         1 560      -0.110000
     13 CAM         52.2110     5.5850     3.3390 cp         1 560      -0.015000
     14 CAN         50.8520     5.0740     3.5980 cp         1 560      -0.031000
     15 CAO         50.6030     3.7130     3.7830 ca         1 560      -0.113000
     16 CAP         49.3150     3.2470     3.9850 ca         1 560      -0.119000
     17 CAQ         48.2310     4.1230     4.0210 ca         1 560      -0.082300
     18 CAR         46.8310     3.6200     4.2640 c3         1 560       0.197100
     19 CAT         48.4800     5.4790     3.8380 ca         1 560      -0.119000
     20 CAU         49.7690     5.9510     3.6330 ca         1 560      -0.113000
     21 CAV         53.3240     5.1690     4.0420 ca         1 560       0.061100
     22 CAX         54.7160     4.3550     5.5680 c5         1 560       0.325200
     23 CAZ         54.5850     5.6820     3.7940 ca         1 560       0.052100
     24 CBA         54.8180     6.6270     2.8250 ca         1 560      -0.109000
     25 CBC         50.8470    10.4490     3.9490 c3         1 560      -0.135700
     26 CBD         52.0530    10.6470     4.8670 c3         1 560      -0.084100
     27 NAA         49.3430    14.6280     2.4310 nv         1 560      -0.955500
     28 NAE         52.1230    12.3630    -0.3910 nv         1 560      -0.965500
     29 NAS         46.5410     2.4340     3.4760 n8         1 560      -0.888800
     30 OAW         53.4000     4.2560     5.0430 os         1 560      -0.316900
     31 OAY         55.4790     5.1060     4.6340 os         1 560      -0.321900
     32 H1          54.9500     8.4040     0.9960 hc         1 560       0.063700
     33 H2          54.2680     6.6390    -0.5850 hc         1 560       0.041367
     34 H3          52.5810     7.1600    -0.4820 hc         1 560       0.041367
     35 H4          53.7950     8.2320    -1.1840 hc         1 560       0.041367
     36 H5          51.6070     6.9030     1.7640 ha         1 560       0.146000
     37 H6          51.4190     3.0020     3.7440 ha         1 560       0.136000
     38 H7          49.1470     2.1840     4.1070 ha         1 560       0.137000
     39 H8          46.1280     4.4480     4.1010 h1         1 560       0.034700
     40 H9          46.7350     3.3490     5.3200 h1         1 560       0.034700
     41 H10         47.6560     6.1830     3.8570 ha         1 560       0.137000
     42 H11         49.9310     7.0140     3.5050 ha         1 560       0.136000
     43 H12         55.1440     3.3580     5.6790 h2         1 560       0.064200
     44 H13         54.6940     4.8730     6.5330 h2         1 560       0.064200
     45 H14         55.8110     7.0170     2.6400 ha         1 560       0.151000
     46 H15         49.9270    10.5100     4.5320 hc         1 560       0.060200
     47 H16         50.8870     9.4530     3.5020 hc         1 560       0.060200
     48 H17         52.0650     9.8920     5.6520 hc         1 560       0.039033
     49 H18         52.9890    10.5680     4.3140 hc         1 560       0.039033
     50 H19         52.0250    11.6270     5.3450 hc         1 560       0.039033
     51 H20         49.1840    15.2970     1.6980 hn         1 560       0.442300
     52 H21         48.7100    14.6300     3.2120 hn         1 560       0.442300
     53 H22         52.1200    13.1640    -0.9980 hn         1 560       0.444300
     54 H23         52.7720    11.6210    -0.5900 hn         1 560       0.444300
     55 H24         45.6390     2.0640     3.7440 hn         1 560       0.341300
     56 H25         46.4620     2.6880     2.4990 hn         1 560       0.341300
@<TRIPOS>BOND
     1     1     2 ar  
     2     1     5 ar  
     3     1    25 1   
     4     2     3 ar  
     5     2     7 1   
     6     3     4 ar  
     7     3    28 1   
     8     4     6 ar  
     9     5     6 ar  
    10     6    27 1   
    11     7     8 3   
    12     8     9 1   
    13     9    10 1   
    14     9    11 1   
    15     9    32 1   
    16    10    33 1   
    17    10    34 1   
    18    10    35 1   
    19    11    12 ar  
    20    11    24 ar  
    21    12    13 ar  
    22    12    36 1   
    23    13    14 1   
    24    13    21 ar  
    25    14    15 ar  
    26    14    20 ar  
    27    15    16 ar  
    28    15    37 1   
    29    16    17 ar  
    30    16    38 1   
    31    17    18 1   
    32    17    19 ar  
    33    18    29 1   
    34    18    39 1   
    35    18    40 1   
    36    19    20 ar  
    37    19    41 1   
    38    20    42 1   
    39    21    23 ar  
    40    21    30 1   
    41    22    30 1   
    42    22    31 1   
    43    22    43 1   
    44    22    44 1   
    45    23    24 ar  
    46    23    31 1   
    47    24    45 1   
    48    25    26 1   
    49    25    46 1   
    50    25    47 1   
    51    26    48 1   
    52    26    49 1   
    53    26    50 1   
    54    27    51 1   
    55    27    52 1   
    56    28    53 1   
    57    28    54 1   
    58    29    55 1   
    59    29    56 1   
@<TRIPOS>SUBSTRUCTURE
     1 560         1 TEMP              0 ****  ****    0 ROOT
