@<TRIPOS>MOLECULE
561
   57    61     1     0     0
SMALL
No Charge or Current Charge


@<TRIPOS>ATOM
      1 C1           5.1910    -0.5720     0.6910 ca         1 561      -0.203800
      2 C2           5.9530    -0.5710     1.8300 ca         1 561       0.110100
      3 C3           5.6640     0.0030    -0.4970 ca         1 561       0.006000
      4 C4           6.9540     0.5980    -0.4960 ca         1 561      -0.277600
      5 C5           7.2230    -0.0020     1.8820 ca         1 561      -0.240000
      6 C6           3.9350    -1.2440     0.9870 cc         1 561      -0.123400
      7 C7           7.7190     0.5870     0.7060 ca         1 561       0.246100
      8 C8           4.0640    -1.6130     2.3240 cd         1 561      -0.106900
      9 O1           8.9540     1.1460     0.7370 oh         1 561      -0.624100
     10 O2           5.2750    -1.2000     2.8240 os         1 561      -0.190200
     11 C21          7.4870     1.2270    -1.7620 c          1 561       0.724600
     12 O4           8.6020     1.7300    -1.7290 o          1 561      -0.692000
     13 O5           6.7880     1.2090    -2.7630 o          1 561      -0.692000
     14 C9           2.7370    -1.5300     0.0980 c5         1 561       0.181700
     15 N3           1.5830    -2.1010     0.8330 n7         1 561      -0.637200
     16 N1           0.5140    -1.8740    -0.0980 n7         1 561      -0.409000
     17 N2           0.7150    -0.6550    -0.8030 n3         1 561      -0.522400
     18 C10          2.1120    -0.2300    -0.4770 c5         1 561       0.097800
     19 C31         -1.7090    -0.0100    -1.1980 c3         1 561      -0.063400
     20 C32         -2.7480     1.1370    -1.1350 c3         1 561      -0.159400
     21 C33         -0.3090     0.4140    -0.7000 c3         1 561       0.171800
     22 C34         -4.1250     0.6790    -1.6370 c          1 561       0.606100
     23 O11         -4.3460     0.5100    -2.8310 o          1 561      -0.577100
     24 N11         -5.0770     0.5320    -0.6380 ns         1 561      -0.175000
     25 C41         -9.4880     0.2190     1.4990 ca         1 561      -0.100000
     26 C42         -6.4350     0.1000    -0.6680 ca         1 561      -0.023000
     27 C43         -8.2850    -1.0680    -1.7690 ca         1 561      -0.091000
     28 C44         -6.9500    -0.6360    -1.7600 ca         1 561      -0.105000
     29 C45         -7.2860     0.3840     0.4340 ca         1 561      -0.049000
     30 C46         -8.6320    -0.0580     0.4150 ca         1 561      -0.026000
     31 C47         -9.1250    -0.7790    -0.6860 ca         1 561      -0.116000
     32 C48         -6.8250     1.1090     1.5600 ca         1 561      -0.096000
     33 C49         -7.6860     1.3810     2.6370 ca         1 561      -0.110000
     34 C50         -9.0160     0.9370     2.6080 ca         1 561      -0.108000
     35 H3           5.0490    -0.0160    -1.3950 ha         1 561       0.127000
     36 H5           7.8070    -0.0160     2.7970 ha         1 561       0.123000
     37 H8           3.3960    -2.1520     2.9900 h4         1 561       0.223000
     38 HO1          9.0850     1.4880    -0.1940 ho         1 561       0.552000
     39 H9           3.0360    -2.1990    -0.7240 h1         1 561       0.084700
     40 HN3          1.4140    -1.5870     1.7090 hn         1 561       0.416000
     41 HN1          0.3000    -2.7060    -0.6870 hn         1 561       0.434000
     42 H101         2.1190     0.5590     0.2880 h1         1 561       0.075200
     43 H102         2.6540     0.1470    -1.3550 h1         1 561       0.075200
     44 H311        -2.0670    -0.8530    -0.5940 hc         1 561       0.068700
     45 H312        -1.6240    -0.3690    -2.2310 hc         1 561       0.068700
     46 H321        -2.8220     1.4800    -0.0960 hc         1 561       0.055700
     47 H322        -2.3980     1.9580    -1.7730 hc         1 561       0.055700
     48 H331        -0.3930     0.7470     0.3430 h1         1 561       0.031200
     49 H332         0.0150     1.2810    -1.2920 h1         1 561       0.031200
     50 HN11        -4.7400     0.7590     0.2880 hn         1 561       0.154000
     51 H43         -8.6660    -1.6330    -2.6160 ha         1 561       0.114000
     52 H44         -6.3230    -0.8980    -2.6060 ha         1 561       0.133000
     53 H47        -10.1580    -1.1190    -0.7020 ha         1 561       0.111000
     54 H48         -5.8030     1.4740     1.6180 ha         1 561       0.111000
     55 H49         -7.3200     1.9400     3.4960 ha         1 561       0.112000
     56 H50         -9.6800     1.1490     3.4430 ha         1 561       0.111000
     57 H41        -10.5210    -0.1220     1.4820 ha         1 561       0.110000
@<TRIPOS>BOND
     1     1     2 ar  
     2     1     3 ar  
     3     1     6 1   
     4     2     5 ar  
     5     2    10 1   
     6     3     4 ar  
     7     3    35 1   
     8     4     7 ar  
     9     4    11 1   
    10     5     7 ar  
    11     5    36 1   
    12     6     8 2   
    13     6    14 1   
    14     7     9 1   
    15     8    10 1   
    16     8    37 1   
    17     9    38 1   
    18    11    12 1   
    19    11    13 1   
    20    14    15 1   
    21    14    18 1   
    22    14    39 1   
    23    15    16 1   
    24    15    40 1   
    25    16    17 1   
    26    16    41 1   
    27    17    18 1   
    28    17    21 1   
    29    18    42 1   
    30    18    43 1   
    31    19    20 1   
    32    19    21 1   
    33    19    44 1   
    34    19    45 1   
    35    20    22 1   
    36    20    46 1   
    37    20    47 1   
    38    21    48 1   
    39    21    49 1   
    40    22    23 2   
    41    22    24 1   
    42    24    26 1   
    43    24    50 1   
    44    25    30 ar  
    45    25    34 ar  
    46    25    57 1   
    47    26    28 ar  
    48    26    29 ar  
    49    27    28 ar  
    50    27    31 ar  
    51    27    51 1   
    52    28    52 1   
    53    29    30 ar  
    54    29    32 ar  
    55    30    31 ar  
    56    31    53 1   
    57    32    33 ar  
    58    32    54 1   
    59    33    34 ar  
    60    33    55 1   
    61    34    56 1   
@<TRIPOS>SUBSTRUCTURE
     1 561         1 TEMP              0 ****  ****    0 ROOT
