@<TRIPOS>MOLECULE
561
   57    61     1     0     0
SMALL
bcc


@<TRIPOS>ATOM
      1 C1           5.0030    -0.5110     0.4360 ca         1 561      -0.203800
      2 C2           5.6350    -0.6670     1.6710 ca         1 561       0.110100
      3 C3           5.4950     0.4430    -0.4470 ca         1 561      -0.012000
      4 C4           6.5910     1.2120    -0.0870 ca         1 561      -0.277600
      5 C5           6.7280     0.0730     2.0780 ca         1 561      -0.258000
      6 C6           3.9230    -1.4690     0.4280 cc         1 561      -0.123400
      7 C7           7.2110     1.0250     1.1810 ca         1 561       0.246100
      8 C8           4.0000    -2.1070     1.6120 cd         1 561      -0.056900
      9 O1           8.2640     1.7610     1.5230 oh         1 561      -0.585100
     10 O2           5.0250    -1.6330     2.3850 os         1 561      -0.190200
     11 C21          7.1300     2.2490    -1.0400 c          1 561       0.935200
     12 O4           8.1400     2.9050    -0.6280 o          1 561      -0.797300
     13 O5           6.5830     2.4050    -2.1340 o          1 561      -0.797300
     14 C9           2.9590    -1.7070    -0.6780 c5         1 561       0.181700
     15 N3           1.8780    -2.6180    -0.3160 n7         1 561      -0.582000
     16 N1           0.8510    -2.3260    -1.2320 n7         1 561      -0.353800
     17 N2           0.8670    -0.9240    -1.4960 n3         1 561      -0.522400
     18 C10          2.2200    -0.4440    -1.1740 c5         1 561       0.097800
     19 C31         -1.5610    -0.6280    -1.1680 c3         1 561      -0.063400
     20 C32         -2.6140     0.1220    -0.3620 c3         1 561      -0.159400
     21 C33         -0.1610    -0.2550    -0.7130 c3         1 561       0.171800
     22 C34         -4.0250    -0.1650    -0.8220 c          1 561       0.673100
     23 O11         -4.3150    -0.3350    -1.9920 o          1 561      -0.577100
     24 N11         -4.9450    -0.1800     0.1790 ns         1 561      -0.501100
     25 C41         -9.4750     1.4260     1.0310 ca         1 561      -0.118000
     26 C42         -6.3340    -0.3180    -0.0000 ca         1 561       0.069600
     27 C43         -8.2430    -1.5170    -0.8610 ca         1 561      -0.109000
     28 C44         -6.8510    -1.3740    -0.7050 ca         1 561      -0.123000
     29 C45         -7.2000     0.6530     0.5780 ca         1 561      -0.049000
     30 C46         -8.6040     0.4810     0.4410 ca         1 561      -0.026000
     31 C47         -9.1030    -0.6190    -0.2940 ca         1 561      -0.134000
     32 C48         -6.7210     1.7860     1.2790 ca         1 561      -0.114000
     33 C49         -7.5900     2.6850     1.8350 ca         1 561      -0.128000
     34 C50         -8.9830     2.5020     1.7180 ca         1 561      -0.126000
     35 H3           5.0450     0.5970    -1.4190 ha         1 561       0.145000
     36 H5           7.1950    -0.0710     3.0440 ha         1 561       0.141000
     37 H8           3.4180    -2.9040     2.0470 h4         1 561       0.173000
     38 HO1          8.4110     2.3680     0.7050 ho         1 561       0.513000
     39 H9           3.4970    -2.1530    -1.5230 h1         1 561       0.084700
     40 HN3          1.5270    -2.3850     0.6080 hn         1 561       0.360800
     41 HN1          1.1000    -2.7900    -2.0980 hn         1 561       0.378800
     42 H101         2.1890     0.3190    -0.3910 h1         1 561       0.075200
     43 H102         2.7080    -0.0090    -2.0470 h1         1 561       0.075200
     44 H311        -1.7070    -1.7040    -1.0570 hc         1 561       0.068700
     45 H312        -1.6670    -0.3960    -2.2300 hc         1 561       0.068700
     46 H321        -2.5040    -0.0970     0.7030 hc         1 561       0.055700
     47 H322        -2.4610     1.2030    -0.4650 hc         1 561       0.055700
     48 H331        -0.0510    -0.4480     0.3660 h1         1 561       0.031200
     49 H332        -0.0200     0.8210    -0.8470 h1         1 561       0.031200
     50 HN11        -4.6130    -0.0040     1.1150 hn         1 561       0.320500
     51 H43         -8.6260    -2.3610    -1.4200 ha         1 561       0.132000
     52 H44         -6.1920    -2.1180    -1.1300 ha         1 561       0.151000
     53 H47        -10.1740    -0.7390    -0.4010 ha         1 561       0.129000
     54 H48         -5.6560     1.9580     1.3680 ha         1 561       0.129000
     55 H49         -7.2060     3.5480     2.3620 ha         1 561       0.130000
     56 H50         -9.6580     3.2190     2.1650 ha         1 561       0.129000
     57 H41        -10.5440     1.2840     0.9270 ha         1 561       0.128000
@<TRIPOS>BOND
     1     1     2 ar  
     2     1     3 ar  
     3     1     6 1   
     4     2     5 ar  
     5     2    10 1   
     6     3     4 ar  
     7     3    35 1   
     8     4     7 ar  
     9     4    11 1   
    10     5     7 ar  
    11     5    36 1   
    12     6     8 2   
    13     6    14 1   
    14     7     9 1   
    15     8    10 1   
    16     8    37 1   
    17     9    38 1   
    18    11    12 1   
    19    11    13 1   
    20    14    15 1   
    21    14    18 1   
    22    14    39 1   
    23    15    16 1   
    24    15    40 1   
    25    16    17 1   
    26    16    41 1   
    27    17    18 1   
    28    17    21 1   
    29    18    42 1   
    30    18    43 1   
    31    19    20 1   
    32    19    21 1   
    33    19    44 1   
    34    19    45 1   
    35    20    22 1   
    36    20    46 1   
    37    20    47 1   
    38    21    48 1   
    39    21    49 1   
    40    22    23 2   
    41    22    24 1   
    42    24    26 1   
    43    24    50 1   
    44    25    30 ar  
    45    25    34 ar  
    46    25    57 1   
    47    26    28 ar  
    48    26    29 ar  
    49    27    28 ar  
    50    27    31 ar  
    51    27    51 1   
    52    28    52 1   
    53    29    30 ar  
    54    29    32 ar  
    55    30    31 ar  
    56    31    53 1   
    57    32    33 ar  
    58    32    54 1   
    59    33    34 ar  
    60    33    55 1   
    61    34    56 1   
@<TRIPOS>SUBSTRUCTURE
     1 561         1 TEMP              0 ****  ****    0 ROOT
