@<TRIPOS>MOLECULE
562
   48    47     1     0     0
SMALL
bcc


@<TRIPOS>ATOM
      1 N          -21.6650    19.6980   -23.3830 n8         1 562      -0.867800
      2 CA         -20.8410    20.1490   -22.2680 c3         1 562       0.038500
      3 C          -20.7040    21.6920   -22.1250 c          1 562       0.894600
      4 O          -19.9010    22.0960   -21.2590 o          1 562      -0.759800
      5 CB         -19.4720    19.4730   -22.3190 c3         1 562      -0.061400
      6 CG         -19.5260    17.9510   -22.2730 c3         1 562      -0.085400
      7 CD         -18.1350    17.3460   -22.1640 c3         1 562       0.212800
      8 NE         -18.2050    15.9010   -22.1530 nu         1 562      -0.841200
      9 CZ         -17.0940    15.1540   -21.8690 c2         1 562       0.814100
     10 NH1        -15.9980    15.7270   -21.5180 n2         1 562      -0.887100
     11 C01        -18.4370    11.6740   -21.9570 c3         1 562       0.122400
     12 NH2        -17.2710    13.7890   -21.9140 nu         1 562      -0.905200
     13 N08        -22.2580     4.4510   -26.9240 n2         1 562      -0.295400
     14 O01        -19.4990    10.9270   -22.4920 os         1 562      -0.394600
     15 C02        -18.4340    13.1190   -22.4490 c3         1 562       0.181800
     16 N02        -21.7010     5.3480   -24.8640 n2         1 562      -0.085200
     17 O02        -20.4790     8.4180   -23.3000 os         1 562      -0.371600
     18 C03        -19.2480    10.4020   -23.7740 c3         1 562       0.138400
     19 N03        -21.8930     4.8850   -25.9010 n1         1 562       0.176000
     20 C04        -20.3920     9.5150   -24.1900 c3         1 562       0.123400
     21 C05        -21.4140     7.4490   -23.6660 c3         1 562       0.146400
     22 C06        -20.7160     6.3960   -24.5290 c3         1 562       0.061800
     23 H1         -22.5150    20.2500   -23.3860 hn         1 562       0.338800
     24 H2         -21.2000    19.9590   -24.2460 hn         1 562       0.338800
     25 H4         -21.3330    19.8050   -21.3470 h1         1 562       0.059700
     26 OXT        -21.4250    22.4000   -22.8570 o          1 562      -0.759800
     27 H6         -18.8810    19.8390   -21.4790 hc         1 562       0.050700
     28 H7         -18.9450    19.7910   -23.2270 hc         1 562       0.050700
     29 H8         -20.0300    17.5670   -23.1640 hc         1 562       0.040200
     30 H9         -20.1250    17.6290   -21.4150 hc         1 562       0.040200
     31 H10        -17.6630    17.6760   -21.2380 h1         1 562       0.052200
     32 H11        -17.5030    17.7150   -22.9820 h1         1 562       0.052200
     33 H12        -18.8480    15.5140   -22.8270 hn         1 562       0.404800
     34 H13        -15.3080    15.0370   -21.2430 hn         1 562       0.369400
     35 H14        -18.5490    11.6680   -20.8710 h1         1 562       0.054700
     36 H15        -17.4720    11.1990   -22.1870 h1         1 562       0.054700
     37 H16        -16.4090    13.2740   -22.0110 hn         1 562       0.406800
     38 H17        -21.7850     3.5910   -27.2330 hn         1 562       0.501400
     39 H18        -18.4670    13.1520   -23.5460 h1         1 562       0.044200
     40 H19        -19.3380    13.6070   -22.0820 h1         1 562       0.044200
     41 H20        -18.3110     9.8280   -23.7820 h1         1 562       0.036700
     42 H21        -19.1470    11.1890   -24.5320 h1         1 562       0.036700
     43 H22        -21.3330    10.0790   -24.1930 h1         1 562       0.037700
     44 H23        -20.2040     9.1910   -25.2200 h1         1 562       0.037700
     45 H24        -22.2670     7.8740   -24.2060 h1         1 562       0.073700
     46 H25        -21.7950     6.9740   -22.7600 h1         1 562       0.073700
     47 H26        -19.9470     5.8790   -23.9560 h1         1 562       0.100700
     48 H27        -20.2910     6.7980   -25.4480 h1         1 562       0.100700
@<TRIPOS>BOND
     1     1     2 1   
     2     1    23 1   
     3     1    24 1   
     4     2     3 1   
     5     2     5 1   
     6     2    25 1   
     7     3     4 1   
     8     3    26 1   
     9     5     6 1   
    10     5    27 1   
    11     5    28 1   
    12     6     7 1   
    13     6    29 1   
    14     6    30 1   
    15     7     8 1   
    16     7    31 1   
    17     7    32 1   
    18     8     9 1   
    19     8    33 1   
    20     9    10 2   
    21     9    12 1   
    22    10    34 1   
    23    11    14 1   
    24    11    15 1   
    25    11    35 1   
    26    11    36 1   
    27    12    15 1   
    28    12    37 1   
    29    13    19 2   
    30    13    38 1   
    31    14    18 1   
    32    15    39 1   
    33    15    40 1   
    34    16    19 2   
    35    16    22 1   
    36    17    20 1   
    37    17    21 1   
    38    18    20 1   
    39    18    41 1   
    40    18    42 1   
    41    20    43 1   
    42    20    44 1   
    43    21    22 1   
    44    21    45 1   
    45    21    46 1   
    46    22    47 1   
    47    22    48 1   
@<TRIPOS>SUBSTRUCTURE
     1 562         1 TEMP              0 ****  ****    0 ROOT
