@<TRIPOS>MOLECULE
563
   58    61     1     0     0
SMALL
No Charge or Current Charge


@<TRIPOS>ATOM
      1 C4          -2.4380     1.0180    -0.3200 ca         1 563       0.436900
      2 C5          -2.3860    -0.3800    -0.3470 ca         1 563      -0.366000
      3 C6          -1.1480    -0.9720    -0.5820 ca         1 563       0.432900
      4 N1          -0.0510    -0.2470    -0.8010 nb         1 563      -0.348000
      5 N3          -1.3320     1.7510    -0.5250 nb         1 563      -0.302000
      6 CAN         -3.8950     3.0590    -0.7470 c6         1 563       0.182300
      7 CAL         -4.9700     3.9240    -0.0100 c6         1 563       0.151300
      8 NBE         -6.2420     3.1880     0.2590 n3         1 563      -0.713600
      9 CAC         -7.0390     2.9170    -0.9620 c3         1 563       0.151100
     10 CAM         -5.9300     1.9600     1.0520 c6         1 563       0.151300
     11 CAO         -4.8910     1.0180     0.3570 c6         1 563       0.182300
     12 NBF         -3.6410     1.7280    -0.0850 nh         1 563      -0.772300
     13 NAT         -0.9490    -2.3340    -0.6690 nu         1 563      -0.892800
     14 CBA         -1.6360    -3.4320    -0.2550 cc         1 563       0.519900
     15 CAJ         -1.1620    -4.7100    -0.5430 cc         1 563      -0.270000
     16 CAX         -2.0440    -5.5830     0.0160 cd         1 563      -0.106300
     17 CAB         -2.0530    -7.0880     0.0290 c3         1 563      -0.035800
     18 NAU         -3.0090    -4.7650     0.6230 na         1 563      -0.010200
     19 NAP         -2.7380    -3.4020     0.4490 nd         1 563      -0.567800
     20 C2          -0.1810     1.0940    -0.7500 ca         1 563       0.417300
     21 OAV          0.9300     1.8730    -0.9860 os         1 563      -0.350400
     22 CAZ          2.2040     1.4990    -0.6160 ca         1 563       0.095100
     23 CAI          3.2670     1.7410    -1.4990 ca         1 563      -0.079000
     24 CAG          4.5820     1.3890    -1.1410 ca         1 563      -0.145500
     25 CAH          2.4600     0.9250     0.6430 ca         1 563      -0.079000
     26 CAF          3.7740     0.5730     1.0000 ca         1 563      -0.145500
     27 CAY          4.8460     0.7960     0.1140 ca         1 563      -0.021000
     28 NAS          6.1460     0.4150     0.5470 ns         1 563      -0.142000
     29 CAW          7.3880     0.4440    -0.0730 c          1 563       0.608300
     30 OAD          7.5860     0.8320    -1.2190 o          1 563      -0.583100
     31 CAE          8.5010    -0.0590     0.7910 ce         1 563      -0.307200
     32 CAA          9.7960    -0.1550     0.3970 c2         1 563      -0.224000
     33 H1          -3.2720    -0.9830    -0.2160 ha         1 563       0.159000
     34 H2          -4.2220     2.8960    -1.7840 h1         1 563       0.059200
     35 H3          -2.9750     3.6590    -0.7970 h1         1 563       0.059200
     36 H4          -4.5340     4.2640     0.9420 h1         1 563       0.061200
     37 H5          -5.1650     4.8310    -0.6020 h1         1 563       0.061200
     38 H7          -6.4960     2.2710    -1.6640 h1         1 563       0.031033
     39 H8          -7.9840     2.4210    -0.7030 h1         1 563       0.031033
     40 H9          -7.2820     3.8550    -1.4790 h1         1 563       0.031033
     41 H10         -5.5200     2.2500     2.0310 h1         1 563       0.061200
     42 H11         -6.8470     1.3890     1.2580 h1         1 563       0.061200
     43 H12         -4.6450     0.2230     1.0750 h1         1 563       0.059200
     44 H13         -5.3700     0.5360    -0.5080 h1         1 563       0.059200
     45 H14         -0.0330    -2.5740    -1.0340 hn         1 563       0.517000
     46 H15         -0.2660    -4.9450    -1.1050 ha         1 563       0.149000
     47 H16         -2.0080    -7.4740     1.0550 hc         1 563       0.054033
     48 H17         -2.9630    -7.4820    -0.4390 hc         1 563       0.054033
     49 H18         -1.1940    -7.4940    -0.5180 hc         1 563       0.054033
     50 H19         -3.8260    -5.0850     1.1430 hn         1 563       0.371000
     51 H20          3.0720     2.2010    -2.4650 ha         1 563       0.128000
     52 H21          5.3770     1.5910    -1.8520 ha         1 563       0.129500
     53 H22          1.6470     0.7540     1.3440 ha         1 563       0.128000
     54 H23          3.9570     0.1250     1.9750 ha         1 563       0.129500
     55 H24          6.1690     0.0530     1.4920 hn         1 563       0.150000
     56 H25          8.2160    -0.3670     1.7970 ha         1 563       0.177000
     57 H27         10.5730    -0.5330     1.0640 ha         1 563       0.177500
     58 H28         10.1220     0.1400    -0.6030 ha         1 563       0.177500
@<TRIPOS>BOND
     1     1     2 ar  
     2     1     5 ar  
     3     1    12 1   
     4     2     3 ar  
     5     2    33 1   
     6     3     4 ar  
     7     3    13 1   
     8     4    20 ar  
     9     5    20 ar  
    10     6     7 1   
    11     6    12 1   
    12     6    34 1   
    13     6    35 1   
    14     7     8 1   
    15     7    36 1   
    16     7    37 1   
    17     8     9 1   
    18     8    10 1   
    19     9    38 1   
    20     9    39 1   
    21     9    40 1   
    22    10    11 1   
    23    10    41 1   
    24    10    42 1   
    25    11    12 1   
    26    11    43 1   
    27    11    44 1   
    28    13    14 1   
    29    13    45 1   
    30    14    15 1   
    31    14    19 2   
    32    15    16 2   
    33    15    46 1   
    34    16    17 1   
    35    16    18 1   
    36    17    47 1   
    37    17    48 1   
    38    17    49 1   
    39    18    19 1   
    40    18    50 1   
    41    20    21 1   
    42    21    22 1   
    43    22    23 ar  
    44    22    25 ar  
    45    23    24 ar  
    46    23    51 1   
    47    24    27 ar  
    48    24    52 1   
    49    25    26 ar  
    50    25    53 1   
    51    26    27 ar  
    52    26    54 1   
    53    27    28 1   
    54    28    29 1   
    55    28    55 1   
    56    29    30 2   
    57    29    31 1   
    58    31    32 2   
    59    31    56 1   
    60    32    57 1   
    61    32    58 1   
@<TRIPOS>SUBSTRUCTURE
     1 563         1 TEMP              0 ****  ****    0 ROOT
