@<TRIPOS>MOLECULE
563
   58    61     1     0     0
SMALL
abcg2


@<TRIPOS>ATOM
      1 C4          -2.4250     1.0030    -0.1990 ca         1 563       0.436900
      2 C5          -2.2550    -0.3930    -0.1430 ca         1 563      -0.366000
      3 C6          -0.9500    -0.8580    -0.0690 ca         1 563       0.432900
      4 N1           0.1090    -0.0260    -0.0590 nb         1 563      -0.348000
      5 N3          -1.3610     1.8210    -0.2020 nb         1 563      -0.302000
      6 CAN         -3.7920     2.9960    -0.5840 c6         1 563       0.182300
      7 CAL         -4.9500     3.6170     0.1880 c6         1 563       0.151300
      8 NBE         -6.2020     2.8990     0.0510 n3         1 563      -0.713600
      9 CAC         -6.8340     3.0610    -1.2420 c3         1 563       0.151100
     10 CAM         -6.0000     1.5150     0.4270 c6         1 563       0.151300
     11 CAO         -4.8720     0.8160    -0.3300 c6         1 563       0.182300
     12 NBF         -3.6440     1.5870    -0.2380 nh         1 563      -0.772300
     13 NAT         -0.5990    -2.1710    -0.0110 nu         1 563      -0.892800
     14 CBA         -1.3890    -3.3040     0.0080 cc         1 563       0.519900
     15 CAJ         -0.8860    -4.6210     0.0670 cc         1 563      -0.270000
     16 CAX         -2.0090    -5.4180     0.0660 cd         1 563      -0.106300
     17 CAB         -2.1590    -6.8960     0.1360 c3         1 563      -0.035800
     18 NAU         -3.0550    -4.5800     0.0070 na         1 563      -0.010200
     19 NAP         -2.7060    -3.2880    -0.0300 nd         1 563      -0.567800
     20 C2          -0.1830     1.2470    -0.1280 ca         1 563       0.417300
     21 OAV          0.8330     2.1340    -0.1290 os         1 563      -0.350400
     22 CAZ          2.1230     1.6730     0.0000 ca         1 563       0.095100
     23 CAI          2.9140     1.5280    -1.1230 ca         1 563      -0.079000
     24 CAG          4.2410     1.1370    -1.0080 ca         1 563      -0.145500
     25 CAH          2.6500     1.4220     1.2570 ca         1 563      -0.079000
     26 CAF          3.9690     1.0290     1.3780 ca         1 563      -0.145500
     27 CAY          4.7830     0.8790     0.2510 ca         1 563      -0.021000
     28 NAS          6.1040     0.4860     0.4810 ns         1 563      -0.142000
     29 CAW          7.0960     0.2300    -0.4100 c          1 563       0.608300
     30 OAD          6.9680     0.3130    -1.6200 o          1 563      -0.583100
     31 CAE          8.3710    -0.1660     0.2400 ce         1 563      -0.307200
     32 CAA          9.4560    -0.4450    -0.4740 c2         1 563      -0.224000
     33 H1          -3.0730    -1.0880    -0.1660 ha         1 563       0.159000
     34 H2          -3.9540     3.0940    -1.6650 h1         1 563       0.059200
     35 H3          -2.8720     3.5220    -0.3470 h1         1 563       0.059200
     36 H4          -4.6860     3.6500     1.2500 h1         1 563       0.061200
     37 H5          -5.0830     4.6500    -0.1420 h1         1 563       0.061200
     38 H7          -6.2850     2.6330    -2.0920 h1         1 563       0.031033
     39 H8          -7.8200     2.5930    -1.2250 h1         1 563       0.031033
     40 H9          -6.9760     4.1230    -1.4470 h1         1 563       0.031033
     41 H10         -5.7690     1.4780     1.4970 h1         1 563       0.061200
     42 H11         -6.9240     0.9540     0.2780 h1         1 563       0.061200
     43 H12         -4.7370    -0.1660     0.1160 h1         1 563       0.059200
     44 H13         -5.1420     0.6560    -1.3810 h1         1 563       0.059200
     45 H14          0.3960    -2.3310     0.0290 hn         1 563       0.517000
     46 H15          0.1440    -4.9370     0.1060 ha         1 563       0.149000
     47 H16         -2.4590    -7.2160     1.1340 hc         1 563       0.054033
     48 H17         -2.9110    -7.2540    -0.5670 hc         1 563       0.054033
     49 H18         -1.2160    -7.3830    -0.1020 hc         1 563       0.054033
     50 H19         -4.0310    -4.8260    -0.0120 hn         1 563       0.371000
     51 H20          2.5030     1.7290    -2.1050 ha         1 563       0.128000
     52 H21          4.8360     1.0360    -1.9010 ha         1 563       0.129500
     53 H22          2.0380     1.5380     2.1430 ha         1 563       0.128000
     54 H23          4.3720     0.8340     2.3650 ha         1 563       0.129500
     55 H24          6.3430     0.3710     1.4540 hn         1 563       0.150000
     56 H25          8.4010    -0.2230     1.3230 ha         1 563       0.177000
     57 H27         10.3810    -0.7310     0.0070 ha         1 563       0.177500
     58 H28          9.4570    -0.3960    -1.5550 ha         1 563       0.177500
@<TRIPOS>BOND
     1     1     2 ar  
     2     1     5 ar  
     3     1    12 1   
     4     2     3 ar  
     5     2    33 1   
     6     3     4 ar  
     7     3    13 1   
     8     4    20 ar  
     9     5    20 ar  
    10     6     7 1   
    11     6    12 1   
    12     6    34 1   
    13     6    35 1   
    14     7     8 1   
    15     7    36 1   
    16     7    37 1   
    17     8     9 1   
    18     8    10 1   
    19     9    38 1   
    20     9    39 1   
    21     9    40 1   
    22    10    11 1   
    23    10    41 1   
    24    10    42 1   
    25    11    12 1   
    26    11    43 1   
    27    11    44 1   
    28    13    14 1   
    29    13    45 1   
    30    14    15 1   
    31    14    19 2   
    32    15    16 2   
    33    15    46 1   
    34    16    17 1   
    35    16    18 1   
    36    17    47 1   
    37    17    48 1   
    38    17    49 1   
    39    18    19 1   
    40    18    50 1   
    41    20    21 1   
    42    21    22 1   
    43    22    23 ar  
    44    22    25 ar  
    45    23    24 ar  
    46    23    51 1   
    47    24    27 ar  
    48    24    52 1   
    49    25    26 ar  
    50    25    53 1   
    51    26    27 ar  
    52    26    54 1   
    53    27    28 1   
    54    28    29 1   
    55    28    55 1   
    56    29    30 2   
    57    29    31 1   
    58    31    32 2   
    59    31    56 1   
    60    32    57 1   
    61    32    58 1   
@<TRIPOS>SUBSTRUCTURE
     1 563         1 TEMP              0 ****  ****    0 ROOT
