@<TRIPOS>MOLECULE
564
   54    57     1     0     0
SMALL
No Charge or Current Charge


@<TRIPOS>ATOM
      1 C1           1.1320    -0.2430     7.1250 c          1 564       0.711600
      2 C2           0.7130    -0.2580     5.6640 ca         1 564      -0.118600
      3 C3           1.5460    -0.8400     4.6800 ca         1 564      -0.061000
      4 C4           1.1600    -0.8550     3.3280 ca         1 564      -0.148000
      5 C5          -0.0640    -0.2890     2.9340 ca         1 564      -0.064000
      6 C10         -0.9070     0.2930     3.9020 ca         1 564      -0.026000
      7 C11         -0.5200     0.3070     5.2560 ca         1 564      -0.101000
      8 C15         -0.3250    -0.2300    -3.6450 ca         1 564      -0.079300
      9 C16         -0.6370    -0.9510    -4.9840 c6         1 564       0.003300
     10 C17          0.3380    -0.5260    -6.1150 c6         1 564      -0.066400
     11 C18          1.7980    -0.4930    -5.6340 c6         1 564      -0.066400
     12 C19          2.0110     0.5530    -4.5040 c6         1 564      -0.001700
     13 C20          0.9010     0.4650    -3.4220 ca         1 564      -0.044300
     14 C23         -2.0810    -0.6270    -5.4850 c3         1 564      -0.082100
     15 C24         -0.5640    -2.4920    -4.7490 c3         1 564      -0.082100
     16 C25          3.4280     0.3020    -3.8920 c3         1 564      -0.080600
     17 C26          2.0180     2.0000    -5.0900 c3         1 564      -0.080600
     18 O1           0.3830     0.2700     7.9450 o          1 564      -0.713500
     19 O2           2.2050    -0.7450     7.4320 o          1 564      -0.713500
     20 C6          -0.4500    -0.3040     1.5810 ca         1 564      -0.050000
     21 C7          -1.6770     0.2720     1.1770 ca         1 564      -0.196600
     22 C8          -2.5210     0.8370     2.1580 ca         1 564      -0.097000
     23 C9          -2.1360     0.8520     3.5090 ca         1 564      -0.102000
     24 C13         -1.0570     0.3330    -1.3570 ca         1 564      -0.161600
     25 C14         -1.2730    -0.2970    -2.5980 ca         1 564      -0.066000
     26 C21          1.0880     1.1300    -2.1880 ca         1 564      -0.128000
     27 C22          0.1260     1.0700    -1.1720 ca         1 564      -0.067000
     28 C12         -2.1080     0.2500    -0.2730 c          1 564       0.600300
     29 O3          -3.2970     0.1670    -0.5640 o          1 564      -0.545100
     30 H3           2.4990    -1.2840     4.9600 ha         1 564       0.132000
     31 H4           1.8180    -1.3080     2.5890 ha         1 564       0.092000
     32 H11         -1.1800     0.7590     5.9920 ha         1 564       0.134000
     33 H171         0.0480     0.4600    -6.4980 hc         1 564       0.039200
     34 H172         0.2490    -1.2110    -6.9690 hc         1 564       0.039200
     35 H181         2.4590    -0.2730    -6.4830 hc         1 564       0.040200
     36 H182         2.0900    -1.4920    -5.2820 hc         1 564       0.040200
     37 H231        -2.8590    -1.0400    -4.8330 hc         1 564       0.034700
     38 H232        -2.2440     0.4560    -5.5470 hc         1 564       0.034700
     39 H233        -2.2580    -1.0430    -6.4840 hc         1 564       0.034700
     40 H241        -1.3170    -2.8260    -4.0250 hc         1 564       0.034700
     41 H242        -0.7340    -3.0510    -5.6770 hc         1 564       0.034700
     42 H243         0.4130    -2.7950    -4.3540 hc         1 564       0.034700
     43 H251         3.7370     1.0910    -3.1990 hc         1 564       0.034533
     44 H252         3.4580    -0.6490    -3.3460 hc         1 564       0.034533
     45 H253         4.1950     0.2540    -4.6750 hc         1 564       0.034533
     46 H261         2.2670     2.7430    -4.3230 hc         1 564       0.034533
     47 H262         2.7530     2.1050    -5.8970 hc         1 564       0.034533
     48 H263         1.0380     2.2790    -5.4950 hc         1 564       0.034533
     49 H6           0.2000    -0.7740     0.8470 ha         1 564       0.105000
     50 H8          -3.4760     1.2740     1.8720 ha         1 564       0.111000
     51 H9          -2.7960     1.2980     4.2490 ha         1 564       0.111000
     52 H14         -2.1910    -0.8600    -2.7390 ha         1 564       0.125000
     53 H21          1.9860     1.7120    -2.0050 ha         1 564       0.111000
     54 H22          0.3040     1.6070    -0.2420 ha         1 564       0.132000
@<TRIPOS>BOND
     1     1     2 1   
     2     1    18 1   
     3     1    19 1   
     4     2     3 ar  
     5     2     7 ar  
     6     3     4 ar  
     7     3    30 1   
     8     4     5 ar  
     9     4    31 1   
    10     5     6 ar  
    11     5    20 ar  
    12     6     7 ar  
    13     6    23 ar  
    14     7    32 1   
    15     8     9 1   
    16     8    13 ar  
    17     8    25 ar  
    18     9    10 1   
    19     9    14 1   
    20     9    15 1   
    21    10    11 1   
    22    10    33 1   
    23    10    34 1   
    24    11    12 1   
    25    11    35 1   
    26    11    36 1   
    27    12    13 1   
    28    12    16 1   
    29    12    17 1   
    30    13    26 ar  
    31    14    37 1   
    32    14    38 1   
    33    14    39 1   
    34    15    40 1   
    35    15    41 1   
    36    15    42 1   
    37    16    43 1   
    38    16    44 1   
    39    16    45 1   
    40    17    46 1   
    41    17    47 1   
    42    17    48 1   
    43    20    21 ar  
    44    20    49 1   
    45    21    22 ar  
    46    21    28 1   
    47    22    23 ar  
    48    22    50 1   
    49    23    51 1   
    50    24    25 ar  
    51    24    27 ar  
    52    24    28 1   
    53    25    52 1   
    54    26    27 ar  
    55    26    53 1   
    56    27    54 1   
    57    28    29 2   
@<TRIPOS>SUBSTRUCTURE
     1 564         1 TEMP              0 ****  ****    0 ROOT
