@<TRIPOS>MOLECULE
564
   54    57     1     0     0
SMALL
bcc


@<TRIPOS>ATOM
      1 C1           0.9730    -0.2410     7.1720 c          1 564       0.922200
      2 C2           0.6110    -0.2530     5.6900 ca         1 564      -0.118600
      3 C3           1.4920    -0.8290     4.7440 ca         1 564      -0.079000
      4 C4           1.1850    -0.8480     3.4120 ca         1 564      -0.166000
      5 C5          -0.0250    -0.2850     2.9440 ca         1 564      -0.064000
      6 C10         -0.9170     0.2930     3.8830 ca         1 564      -0.026000
      7 C11         -0.5700     0.2930     5.2510 ca         1 564      -0.119000
      8 C15         -0.2820    -0.2390    -3.6420 ca         1 564      -0.079300
      9 C16         -0.6540    -0.9390    -4.9460 c6         1 564       0.003300
     10 C17          0.2740    -0.4870    -6.0780 c6         1 564      -0.066400
     11 C18          1.7270    -0.4640    -5.6510 c6         1 564      -0.066400
     12 C19          1.9900     0.5600    -4.5430 c6         1 564      -0.001700
     13 C20          0.9310     0.4420    -3.4550 ca         1 564      -0.044300
     14 C23         -2.0920    -0.6050    -5.3590 c3         1 564      -0.082100
     15 C24         -0.5350    -2.4570    -4.7470 c3         1 564      -0.082100
     16 C25          3.3920     0.2940    -3.9830 c3         1 564      -0.081100
     17 C26          1.9480     1.9860    -5.1140 c3         1 564      -0.081100
     18 O1           0.1340     0.2540     7.9470 o          1 564      -0.819300
     19 O2           2.0770    -0.7290     7.4750 o          1 564      -0.819300
     20 C6          -0.3640    -0.2740     1.5730 ca         1 564      -0.068000
     21 C7          -1.5490     0.2720     1.1420 ca         1 564      -0.196600
     22 C8          -2.4500     0.8250     2.0880 ca         1 564      -0.115000
     23 C9          -2.1340     0.8480     3.4150 ca         1 564      -0.120000
     24 C13         -0.9250     0.2900    -1.3470 ca         1 564      -0.161600
     25 C14         -1.1800    -0.3010    -2.5790 ca         1 564      -0.084000
     26 C21          1.1630     1.0700    -2.2280 ca         1 564      -0.146000
     27 C22          0.2640     0.9990    -1.1830 ca         1 564      -0.085000
     28 C12         -1.9600     0.2200    -0.2850 c          1 564       0.600300
     29 O3          -3.1380     0.1230    -0.5730 o          1 564      -0.545100
     30 H3           2.4220    -1.2580     5.0890 ha         1 564       0.150000
     31 H4           1.8690    -1.2930     2.6990 ha         1 564       0.110000
     32 H11         -1.2540     0.7350     5.9650 ha         1 564       0.152000
     33 H171        -0.0290     0.5080    -6.4200 hc         1 564       0.039200
     34 H172         0.1380    -1.1560    -6.9320 hc         1 564       0.039200
     35 H181         2.3750    -0.2400    -6.5030 hc         1 564       0.040200
     36 H182         2.0210    -1.4570    -5.2970 hc         1 564       0.040200
     37 H231        -2.8360    -1.0010    -4.6670 hc         1 564       0.034700
     38 H232        -2.2400     0.4740    -5.4340 hc         1 564       0.034700
     39 H233        -2.3020    -1.0400    -6.3380 hc         1 564       0.034700
     40 H241        -1.1860    -2.8040    -3.9430 hc         1 564       0.034700
     41 H242        -0.8260    -2.9820    -5.6600 hc         1 564       0.034700
     42 H243         0.4830    -2.7600    -4.4970 hc         1 564       0.034700
     43 H251         3.7080     1.0440    -3.2590 hc         1 564       0.034533
     44 H252         3.4460    -0.6840    -3.5030 hc         1 564       0.034533
     45 H253         4.1190     0.3080    -4.7980 hc         1 564       0.034533
     46 H261         2.1550     2.7250    -4.3370 hc         1 564       0.034533
     47 H262         2.7020     2.1060    -5.8950 hc         1 564       0.034533
     48 H263         0.9760     2.2290    -5.5440 hc         1 564       0.034533
     49 H6           0.3220    -0.7290     0.8700 ha         1 564       0.123000
     50 H8          -3.3860     1.2470     1.7490 ha         1 564       0.129000
     51 H9          -2.8180     1.2900     4.1280 ha         1 564       0.129000
     52 H14         -2.1120    -0.8390    -2.7030 ha         1 564       0.143000
     53 H21          2.0750     1.6320    -2.0800 ha         1 564       0.129000
     54 H22          0.4820     1.5120    -0.2560 ha         1 564       0.150000
@<TRIPOS>BOND
     1     1     2 1   
     2     1    18 1   
     3     1    19 1   
     4     2     3 ar  
     5     2     7 ar  
     6     3     4 ar  
     7     3    30 1   
     8     4     5 ar  
     9     4    31 1   
    10     5     6 ar  
    11     5    20 ar  
    12     6     7 ar  
    13     6    23 ar  
    14     7    32 1   
    15     8     9 1   
    16     8    13 ar  
    17     8    25 ar  
    18     9    10 1   
    19     9    14 1   
    20     9    15 1   
    21    10    11 1   
    22    10    33 1   
    23    10    34 1   
    24    11    12 1   
    25    11    35 1   
    26    11    36 1   
    27    12    13 1   
    28    12    16 1   
    29    12    17 1   
    30    13    26 ar  
    31    14    37 1   
    32    14    38 1   
    33    14    39 1   
    34    15    40 1   
    35    15    41 1   
    36    15    42 1   
    37    16    43 1   
    38    16    44 1   
    39    16    45 1   
    40    17    46 1   
    41    17    47 1   
    42    17    48 1   
    43    20    21 ar  
    44    20    49 1   
    45    21    22 ar  
    46    21    28 1   
    47    22    23 ar  
    48    22    50 1   
    49    23    51 1   
    50    24    25 ar  
    51    24    27 ar  
    52    24    28 1   
    53    25    52 1   
    54    26    27 ar  
    55    26    53 1   
    56    27    54 1   
    57    28    29 2   
@<TRIPOS>SUBSTRUCTURE
     1 564         1 TEMP              0 ****  ****    0 ROOT
