@<TRIPOS>MOLECULE
565
   44    45     1     0     0
SMALL
abcg2


@<TRIPOS>ATOM
      1 C1           8.5690     0.6720    -0.7650 ca         1 565      -0.177000
      2 C2           7.2650     0.9790    -0.4200 ca         1 565       0.189000
      3 C3           6.2390     1.0990    -1.3440 ca         1 565      -0.092300
      4 C4           6.5740     0.9030    -2.6820 ca         1 565      -0.087000
      5 C5           7.8640     0.5950    -3.0540 ca         1 565       0.111000
      6 C6           8.8590     0.4800    -2.0990 ca         1 565       0.159000
      7 F9           8.1700     0.4010    -4.3430 f          1 565      -0.162000
      8 F10          6.9920     1.1650     0.8800 f          1 565      -0.159000
      9 C11          4.8380     1.4420    -0.9350 c3         1 565      -0.019100
     10 C12          4.5990     2.9520    -0.8040 c3         1 565       0.171500
     11 C15          3.1950     3.2160    -0.2420 c3         1 565      -0.196400
     12 C16          3.0480     2.7900     1.2060 c          1 565       0.596100
     13 N19          1.8460     2.3290     1.6440 n          1 565      -0.396800
     14 N20          4.8210     3.5830    -2.0930 n8         1 565      -0.992200
     15 O22          3.9960     2.9050     1.9680 o          1 565      -0.567100
     16 C25          0.8210     1.8290     0.7370 c3         1 565       0.099000
     17 C26          1.1380     0.4170     0.2670 c3         1 565      -0.125400
     18 C27          1.3520    -0.5680     1.4120 c3         1 565       0.111000
     19 N28          2.5410    -0.3510     2.2280 ns         1 565      -0.515900
     20 C29          2.7020     0.6110     3.1670 c          1 565       0.547000
     21 C30          1.7700     1.8120     3.0110 c3         1 565       0.036700
     22 C37          1.9320     2.8570     4.1020 c3         1 565      -0.081100
     23 O42          3.5230     0.5210     4.0630 o          1 565      -0.524000
     24 F44         10.1030     0.1760    -2.4770 f          1 565      -0.157000
     25 H1           9.3400     0.5830    -0.0120 ha         1 565       0.153000
     26 H4           5.8120     0.9840    -3.4460 ha         1 565       0.134000
     27 H111         4.5860     0.9450     0.0030 hc         1 565       0.054200
     28 H112         4.1470     1.0450    -1.6860 hc         1 565       0.054200
     29 H12          5.3340     3.3620    -0.1090 h1         1 565       0.097700
     30 H151         2.9970     4.2940    -0.2740 hc         1 565       0.057700
     31 H152         2.4630     2.7550    -0.9060 hc         1 565       0.057700
     32 H201         4.7180     4.5860    -2.0050 hn         1 565       0.394000
     33 H202         4.1080     3.2870    -2.7510 hn         1 565       0.394000
     34 H251         0.6910     2.5070    -0.1030 h1         1 565       0.055700
     35 H252        -0.1280     1.8400     1.2750 h1         1 565       0.055700
     36 H261         2.0190     0.4210    -0.3790 hc         1 565       0.056700
     37 H262         0.3050     0.0500    -0.3370 hc         1 565       0.056700
     38 H271         0.4550    -0.5950     2.0400 h1         1 565       0.042200
     39 H272         1.4570    -1.5660     0.9920 h1         1 565       0.042200
     40 HN28         3.1390    -1.1550     2.3440 hn         1 565       0.312500
     41 H30          0.7510     1.4250     3.1160 h1         1 565       0.052700
     42 H371         2.9450     3.2370     4.1810 hc         1 565       0.054033
     43 H372         1.2580     3.6890     3.9040 hc         1 565       0.054033
     44 H373         1.6500     2.4290     5.0630 hc         1 565       0.054033
@<TRIPOS>BOND
     1     1     2 ar  
     2     1     6 ar  
     3     1    25 1   
     4     2     3 ar  
     5     2     8 1   
     6     3     4 ar  
     7     3     9 1   
     8     4     5 ar  
     9     4    26 1   
    10     5     6 ar  
    11     5     7 1   
    12     6    24 1   
    13     9    10 1   
    14     9    27 1   
    15     9    28 1   
    16    10    11 1   
    17    10    14 1   
    18    10    29 1   
    19    11    12 1   
    20    11    30 1   
    21    11    31 1   
    22    12    13 1   
    23    12    15 2   
    24    13    16 1   
    25    13    21 1   
    26    14    32 1   
    27    14    33 1   
    28    16    17 1   
    29    16    34 1   
    30    16    35 1   
    31    17    18 1   
    32    17    36 1   
    33    17    37 1   
    34    18    19 1   
    35    18    38 1   
    36    18    39 1   
    37    19    20 1   
    38    19    40 1   
    39    20    21 1   
    40    20    23 2   
    41    21    22 1   
    42    21    41 1   
    43    22    42 1   
    44    22    43 1   
    45    22    44 1   
@<TRIPOS>SUBSTRUCTURE
     1 565         1 TEMP              0 ****  ****    0 ROOT
