@<TRIPOS>MOLECULE
565
   44    45     1     0     0
SMALL
No Charge or Current Charge


@<TRIPOS>ATOM
      1 C1           8.6660     0.7510    -0.9860 ca         1 565      -0.177000
      2 C2           7.3880     1.1180    -0.5350 ca         1 565       0.189000
      3 C3           6.2820     1.1080    -1.4150 ca         1 565      -0.092300
      4 C4           6.4770     0.7210    -2.7580 ca         1 565      -0.087000
      5 C5           7.7560     0.3550    -3.2100 ca         1 565       0.111000
      6 C6           8.8500     0.3710    -2.3240 ca         1 565       0.159000
      7 F9           7.9280    -0.0110    -4.5020 f          1 565      -0.162000
      8 F10          7.2280     1.4760     0.7590 f          1 565      -0.159000
      9 C11          4.8870     1.5040    -0.9270 c3         1 565      -0.019100
     10 C12          4.7150     3.0340    -0.7190 c3         1 565       0.171500
     11 C15          3.3300     3.4140    -0.1540 c3         1 565      -0.196400
     12 C16          3.0900     2.8570     1.2660 c          1 565       0.596100
     13 N19          1.8240     2.3210     1.6480 n          1 565      -0.396800
     14 N20          4.9250     3.7650    -1.9850 n8         1 565      -0.992200
     15 O22          3.9820     2.9740     2.0950 o          1 565      -0.567100
     16 C25          0.8970     1.7360     0.6520 c3         1 565       0.099000
     17 C26          1.2970     0.2930     0.2670 c3         1 565      -0.125400
     18 C27          1.3950    -0.7030     1.4470 c3         1 565       0.111000
     19 N28          2.4990    -0.4370     2.3830 ns         1 565      -0.515900
     20 C29          2.4950     0.5580     3.3440 c          1 565       0.547000
     21 C30          1.6220     1.8060     3.0380 c3         1 565       0.036700
     22 C37          1.6310     2.9080     4.1280 c3         1 565      -0.081100
     23 O42          3.2170     0.4610     4.3250 o          1 565      -0.524000
     24 F44         10.0830     0.0190    -2.7540 f          1 565      -0.157000
     25 H1           9.5090     0.7620    -0.3020 ha         1 565       0.153000
     26 H4           5.6410     0.7080    -3.4540 ha         1 565       0.134000
     27 H111         4.6800     0.9860     0.0170 hc         1 565       0.054200
     28 H112         4.1250     1.1520    -1.6330 hc         1 565       0.054200
     29 H12          5.4830     3.3680    -0.0030 h1         1 565       0.097700
     30 H151         3.2720     4.5050    -0.0650 hc         1 565       0.057700
     31 H152         2.5500     3.1340    -0.8630 hc         1 565       0.057700
     32 H201         4.7760     4.7670    -1.8230 hn         1 565       0.394000
     33 H202         4.1810     3.5150    -2.6440 hn         1 565       0.394000
     34 H251         0.8040     2.3640    -0.2390 h1         1 565       0.055700
     35 H252        -0.1100     1.7080     1.0870 h1         1 565       0.055700
     36 H261         2.2530     0.3080    -0.2680 hc         1 565       0.056700
     37 H262         0.5530    -0.0880    -0.4440 hc         1 565       0.056700
     38 H271         0.4490    -0.7070     2.0050 h1         1 565       0.042200
     39 H272         1.5390    -1.7120     1.0410 h1         1 565       0.042200
     40 HN28         3.1550    -1.1910     2.5500 hn         1 565       0.312500
     41 H30          0.5990     1.4130     3.0810 h1         1 565       0.052700
     42 H371         2.6330     3.3290     4.2700 hc         1 565       0.054033
     43 H372         0.9500     3.7220     3.8540 hc         1 565       0.054033
     44 H373         1.3000     2.4970     5.0880 hc         1 565       0.054033
@<TRIPOS>BOND
     1     1     2 ar  
     2     1     6 ar  
     3     1    25 1   
     4     2     3 ar  
     5     2     8 1   
     6     3     4 ar  
     7     3     9 1   
     8     4     5 ar  
     9     4    26 1   
    10     5     6 ar  
    11     5     7 1   
    12     6    24 1   
    13     9    10 1   
    14     9    27 1   
    15     9    28 1   
    16    10    11 1   
    17    10    14 1   
    18    10    29 1   
    19    11    12 1   
    20    11    30 1   
    21    11    31 1   
    22    12    13 1   
    23    12    15 2   
    24    13    16 1   
    25    13    21 1   
    26    14    32 1   
    27    14    33 1   
    28    16    17 1   
    29    16    34 1   
    30    16    35 1   
    31    17    18 1   
    32    17    36 1   
    33    17    37 1   
    34    18    19 1   
    35    18    38 1   
    36    18    39 1   
    37    19    20 1   
    38    19    40 1   
    39    20    21 1   
    40    20    23 2   
    41    21    22 1   
    42    21    41 1   
    43    22    42 1   
    44    22    43 1   
    45    22    44 1   
@<TRIPOS>SUBSTRUCTURE
     1 565         1 TEMP              0 ****  ****    0 ROOT
