@<TRIPOS>MOLECULE
566
   43    45     1     0     0
SMALL
abcg2


@<TRIPOS>ATOM
      1 C1          -5.5690     0.1920    -0.2740 c6         1 566      -0.071400
      2 C2          -4.3570    -0.6270     0.1630 c6         1 566      -0.091900
      3 C3          -3.0810    -0.0330    -0.4330 c6         1 566       0.133700
      4 C4          -2.9090     1.4350    -0.0420 c6         1 566      -0.091900
      5 C5          -4.1300     2.2490    -0.4570 c6         1 566      -0.071400
      6 C6          -5.4170     1.6600     0.1120 c6         1 566      -0.077400
      7 C15         -1.4350    -1.1690     1.0580 c          1 566       0.572000
      8 C16         -0.1640    -1.9720     0.8640 c5         1 566      -0.170400
      9 C17          0.3070    -1.5770    -0.5430 c5         1 566      -0.167700
     10 C18         -1.0000    -1.1970    -1.2380 c5         1 566       0.117000
     11 N19         -1.8830    -0.8090    -0.1560 n          1 566      -0.406800
     12 C24          4.9170    -0.6220    -0.0680 ca         1 566      -0.149000
     13 C25          6.0900     0.0770     0.1600 ca         1 566      -0.083000
     14 C26          6.0570     1.4480     0.3860 ca         1 566      -0.135000
     15 C27          4.8330     2.0990     0.3790 ca         1 566      -0.083000
     16 C28          3.6480     1.4110     0.1520 ca         1 566      -0.149000
     17 C29          3.6830     0.0350    -0.0750 ca         1 566      -0.022000
     18 C33          1.2530    -0.3930    -0.4290 c          1 566       0.608100
     19 N35          2.5540    -0.7590    -0.3020 ns         1 566      -0.146000
     20 O37          0.8590     0.7580    -0.4070 o          1 566      -0.566100
     21 O38         -1.9610    -0.9300     2.1340 o          1 566      -0.548000
     22 H11         -5.6940     0.1130    -1.3600 hc         1 566       0.037950
     23 H12         -6.4750    -0.2260     0.1720 hc         1 566       0.037950
     24 H21         -4.4630    -1.6670    -0.1570 hc         1 566       0.058450
     25 H22         -4.2950    -0.6280     1.2520 hc         1 566       0.058450
     26 H3          -3.1980    -0.0720    -1.5220 h1         1 566       0.041700
     27 H41         -2.7650     1.5040     1.0400 hc         1 566       0.058450
     28 H42         -2.0030     1.8300    -0.5090 hc         1 566       0.058450
     29 H51         -4.1950     2.2680    -1.5510 hc         1 566       0.037950
     30 H52         -4.0110     3.2870    -0.1380 hc         1 566       0.037950
     31 H61         -6.2800     2.2330    -0.2350 hc         1 566       0.041700
     32 H62         -5.4040     1.7470     1.2040 hc         1 566       0.041700
     33 H161         0.5610    -1.7790     1.6550 hc         1 566       0.081700
     34 H162        -0.4120    -3.0360     0.9060 hc         1 566       0.081700
     35 H17          0.7970    -2.4070    -1.0530 hc         1 566       0.071700
     36 H181        -0.8740    -0.3760    -1.9460 h1         1 566       0.055700
     37 H182        -1.4070    -2.0500    -1.7880 h1         1 566       0.055700
     38 H25          7.0320    -0.4550     0.1600 ha         1 566       0.114000
     39 H26          6.9710     1.9970     0.5670 ha         1 566       0.116000
     40 H27          4.7880     3.1670     0.5540 ha         1 566       0.114000
     41 H28          2.7160     1.9510     0.1570 ha         1 566       0.126500
     42 HN35         2.7410    -1.7480    -0.3760 hn         1 566       0.148000
     43 H24          4.9580    -1.6910    -0.2400 ha         1 566       0.126500
@<TRIPOS>BOND
     1     1     2 1   
     2     1     6 1   
     3     1    22 1   
     4     1    23 1   
     5     2     3 1   
     6     2    24 1   
     7     2    25 1   
     8     3     4 1   
     9     3    11 1   
    10     3    26 1   
    11     4     5 1   
    12     4    27 1   
    13     4    28 1   
    14     5     6 1   
    15     5    29 1   
    16     5    30 1   
    17     6    31 1   
    18     6    32 1   
    19     7     8 1   
    20     7    11 1   
    21     7    21 2   
    22     8     9 1   
    23     8    33 1   
    24     8    34 1   
    25     9    10 1   
    26     9    18 1   
    27     9    35 1   
    28    10    11 1   
    29    10    36 1   
    30    10    37 1   
    31    12    13 ar  
    32    12    17 ar  
    33    12    43 1   
    34    13    14 ar  
    35    13    38 1   
    36    14    15 ar  
    37    14    39 1   
    38    15    16 ar  
    39    15    40 1   
    40    16    17 ar  
    41    16    41 1   
    42    17    19 1   
    43    18    19 1   
    44    18    20 2   
    45    19    42 1   
@<TRIPOS>SUBSTRUCTURE
     1 566         1 TEMP              0 ****  ****    0 ROOT
