@<TRIPOS>MOLECULE
566
   43    45     1     0     0
SMALL
No Charge or Current Charge


@<TRIPOS>ATOM
      1 C1          -5.5740     0.2750    -0.5490 c6         1 566      -0.071400
      2 C2          -4.4400    -0.6380    -0.0180 c6         1 566      -0.091900
      3 C3          -3.0490    -0.1020    -0.4490 c6         1 566       0.133700
      4 C4          -2.8300     1.3770    -0.0380 c6         1 566      -0.091900
      5 C5          -3.9770     2.2760    -0.5640 c6         1 566      -0.071400
      6 C6          -5.3610     1.7470    -0.1100 c6         1 566      -0.077400
      7 C15         -1.6510    -1.3390     1.2810 c          1 566       0.572000
      8 C16         -0.4110    -2.2240     1.1870 c5         1 566      -0.170400
      9 C17          0.3330    -1.7020    -0.0830 c5         1 566      -0.167700
     10 C18         -0.8590    -1.3060    -1.0120 c5         1 566       0.117000
     11 N19         -1.9280    -0.9810    -0.0430 n          1 566      -0.406800
     12 C24          4.8790    -0.4590    -0.5170 ca         1 566      -0.149000
     13 C25          6.0810     0.2680    -0.4810 ca         1 566      -0.083000
     14 C26          6.0910     1.5820     0.0100 ca         1 566      -0.135000
     15 C27          4.8990     2.1680     0.4650 ca         1 566      -0.083000
     16 C28          3.6960     1.4400     0.4290 ca         1 566      -0.149000
     17 C29          3.6760     0.1160    -0.0620 ca         1 566      -0.022000
     18 C33          1.1860    -0.4430     0.2550 c          1 566       0.608100
     19 N35          2.5000    -0.6810    -0.1300 ns         1 566      -0.146000
     20 O37          0.7770     0.5860     0.7790 o          1 566      -0.566100
     21 O38         -2.1750    -0.8610     2.2760 o          1 566      -0.548000
     22 H11         -5.6120     0.2190    -1.6460 hc         1 566       0.037950
     23 H12         -6.5450    -0.0860    -0.1840 hc         1 566       0.037950
     24 H21         -4.5790    -1.6600    -0.3960 hc         1 566       0.058450
     25 H22         -4.5070    -0.6960     1.0760 hc         1 566       0.058450
     26 H3          -3.0580    -0.1100    -1.5490 h1         1 566       0.041700
     27 H41         -2.7720     1.4610     1.0550 hc         1 566       0.058450
     28 H42         -1.8680     1.7350    -0.4300 hc         1 566       0.058450
     29 H51         -3.9390     2.3190    -1.6620 hc         1 566       0.037950
     30 H52         -3.8360     3.3060    -0.2080 hc         1 566       0.037950
     31 H61         -6.1560     2.3780    -0.5300 hc         1 566       0.041700
     32 H62         -5.4460     1.8230     0.9830 hc         1 566       0.041700
     33 H161         0.1640    -2.2230     2.1200 hc         1 566       0.081700
     34 H162        -0.7580    -3.2430     0.9790 hc         1 566       0.081700
     35 H17          0.9580    -2.4770    -0.5420 hc         1 566       0.071700
     36 H181        -0.6170    -0.4580    -1.6680 h1         1 566       0.055700
     37 H182        -1.1680    -2.1490    -1.6440 h1         1 566       0.055700
     38 H25          7.0040    -0.1880    -0.8350 ha         1 566       0.114000
     39 H26          7.0210     2.1470     0.0380 ha         1 566       0.116000
     40 H27          4.9060     3.1870     0.8450 ha         1 566       0.114000
     41 H28          2.7940     1.9260     0.7860 ha         1 566       0.126500
     42 HN35         2.6520    -1.5940    -0.5380 hn         1 566       0.148000
     43 H24          4.8850    -1.4780    -0.9000 ha         1 566       0.126500
@<TRIPOS>BOND
     1     1     2 1   
     2     1     6 1   
     3     1    22 1   
     4     1    23 1   
     5     2     3 1   
     6     2    24 1   
     7     2    25 1   
     8     3     4 1   
     9     3    11 1   
    10     3    26 1   
    11     4     5 1   
    12     4    27 1   
    13     4    28 1   
    14     5     6 1   
    15     5    29 1   
    16     5    30 1   
    17     6    31 1   
    18     6    32 1   
    19     7     8 1   
    20     7    11 1   
    21     7    21 2   
    22     8     9 1   
    23     8    33 1   
    24     8    34 1   
    25     9    10 1   
    26     9    18 1   
    27     9    35 1   
    28    10    11 1   
    29    10    36 1   
    30    10    37 1   
    31    12    13 ar  
    32    12    17 ar  
    33    12    43 1   
    34    13    14 ar  
    35    13    38 1   
    36    14    15 ar  
    37    14    39 1   
    38    15    16 ar  
    39    15    40 1   
    40    16    17 ar  
    41    16    41 1   
    42    17    19 1   
    43    18    19 1   
    44    18    20 2   
    45    19    42 1   
@<TRIPOS>SUBSTRUCTURE
     1 566         1 TEMP              0 ****  ****    0 ROOT
