@<TRIPOS>MOLECULE
567
   71    73     1     0     0
SMALL
No Charge or Current Charge


@<TRIPOS>ATOM
      1 C4           5.1490    -1.5550     0.7560 ca         1 567      -0.097800
      2 C14          0.9010    -0.6040    -1.0770 c          1 567       0.601100
      3 C5           2.4180    -0.4360    -0.7020 c3         1 567       0.180500
      4 C6           5.2740    -1.5070     3.1590 ca         1 567      -0.132000
      5 C11          4.4880    -1.6160     1.9910 ca         1 567      -0.067000
      6 C7           7.3100    -1.2930     1.8050 ca         1 567      -0.107000
      7 C13          5.7290    -1.5220    -1.4860 cc         1 567      -0.153100
      8 N1         -10.8380     0.5620     0.2280 nv         1 567      -1.077200
      9 N2         -10.2580     1.7260    -1.6060 n2         1 567      -0.828100
     10 N5           0.0160    -0.5430    -0.0140 ns         1 567      -0.504900
     11 C15         -1.4550    -0.7010    -0.1150 c3         1 567       0.028700
     12 C18         -1.8860    -2.1710     0.1460 c3         1 567      -0.075400
     13 C19         -1.3020    -3.2080    -0.8500 c3         1 567      -0.160400
     14 C20         -2.1690     0.2700     0.8710 c          1 567       0.595100
     15 O5          -1.5970     0.8200     1.8050 o          1 567      -0.597100
     16 N6          -3.5080     0.4750     0.6250 ns         1 567      -0.502900
     17 C21         -4.3690     1.3390     1.4300 c3         1 567       0.143300
     18 C16         -6.2530     2.2210    -0.0280 ca         1 567      -0.108000
     19 C17         -7.5790     2.1770    -0.4950 ca         1 567      -0.081000
     20 C22         -8.4900     1.2130    -0.0020 ca         1 567      -0.147900
     21 C23         -8.0200     0.2700     0.9440 ca         1 567      -0.081000
     22 C24         -6.6930     0.3170     1.4080 ca         1 567      -0.108000
     23 C25         -5.8050     1.2960     0.9300 ca         1 567      -0.091300
     24 C2          -1.7950    -4.6490    -0.6740 c          1 567       0.604100
     25 O2          -2.5600    -5.0080     0.2040 o          1 567      -0.613100
     26 N4           3.1090     0.7080    -1.3790 n7         1 567      -0.915300
     27 S1           2.9000     2.2450    -0.7830 s6         1 567       1.215100
     28 O4           3.5170     3.1360    -1.7650 o          1 567      -0.546500
     29 O3           1.4800     2.3690    -0.4520 o          1 567      -0.546500
     30 C9           3.8580     2.1750     0.6850 c3         1 567      -0.455400
     31 O7           4.7470     4.2900     1.0410 o          1 567      -0.701500
     32 O6           2.9750     3.7530     2.1420 o          1 567      -0.701500
     33 C10          6.6780    -1.3450     3.0660 ca         1 567      -0.088000
     34 C3           6.5030    -1.4030     0.6650 ca         1 567      -0.031200
     35 N7           6.8710    -1.3850    -0.6690 na         1 567      -0.212700
     36 C12          4.6600    -1.6230    -0.6030 cd         1 567      -0.164400
     37 H5           2.4540    -0.3030     0.3870 h1         1 567       0.083700
     38 H6           4.7980    -1.5490     4.1350 ha         1 567       0.107000
     39 H11          3.4110    -1.7460     2.0520 ha         1 567       0.106000
     40 H7           8.3880    -1.1720     1.7220 ha         1 567       0.114000
     41 H13          5.7670    -1.5250    -2.5720 h4         1 567       0.207000
     42 HN1        -10.5690     0.4050     1.1920 hn         1 567       0.459500
     43 HN1A       -11.7890     0.8870     0.0960 hn         1 567       0.459500
     44 HN2        -11.1940     1.3800    -1.8450 hn         1 567       0.366400
     45 HN3         -0.6880    -5.2420    -2.2950 hn         1 567       0.311500
     46 HN3A        -1.6100    -6.5060    -1.5040 hn         1 567       0.311500
     47 HN5          0.4030    -0.3200     0.8970 hn         1 567       0.335500
     48 H15         -1.7760    -0.4120    -1.1250 h1         1 567       0.084700
     49 H18         -1.5990    -2.4530     1.1670 hc         1 567       0.064200
     50 H18A        -2.9810    -2.2320     0.1040 hc         1 567       0.064200
     51 H19         -1.4790    -2.9190    -1.8930 hc         1 567       0.065700
     52 H19A        -0.2060    -3.2360    -0.8240 hc         1 567       0.065700
     53 HN6         -3.9170    -0.0080    -0.1650 hn         1 567       0.320500
     54 H21         -4.3300     1.0110     2.4770 h1         1 567       0.067200
     55 H21A        -3.9880     2.3680     1.3830 h1         1 567       0.067200
     56 H16         -5.5730     2.9770    -0.4170 ha         1 567       0.122500
     57 H17         -7.8990     2.9040    -1.2380 ha         1 567       0.126000
     58 H23         -8.6740    -0.5140     1.3190 ha         1 567       0.126000
     59 H24         -6.3550    -0.4170     2.1370 ha         1 567       0.122500
     60 H1           2.7370    -2.5690    -0.4720 hc         1 567       0.044700
     61 H1A          3.1270    -1.9640    -2.0740 hc         1 567       0.044700
     62 HN4          4.1030     0.5910    -1.1870 hn         1 567       0.482000
     63 H9           4.8830     1.9010     0.4200 h1         1 567       0.072700
     64 H9A          3.4140     1.4420     1.3640 h1         1 567       0.072700
     65 H10          7.2740    -1.2630     3.9730 ha         1 567       0.106000
     66 HN7          7.8240    -1.2870    -1.0040 hn         1 567       0.352000
     67 C1           3.2060    -1.7330    -1.0040 c3         1 567      -0.012200
     68 C26         -9.8930     1.1570    -0.5320 ce         1 567       0.661800
     69 O1           0.5080    -0.7900    -2.2240 o          1 567      -0.600100
     70 C8           3.8270     3.5320     1.2990 c          1 567       0.764000
     71 N3          -1.3220    -5.5410    -1.5690 nt         1 567      -0.615000
@<TRIPOS>BOND
     1     1     5 ar  
     2     1    34 ar  
     3     1    36 1   
     4     2     3 1   
     5     2    10 1   
     6     2    69 2   
     7     3    26 1   
     8     3    37 1   
     9     3    67 1   
    10     4     5 ar  
    11     4    33 ar  
    12     4    38 1   
    13     5    39 1   
    14     6    33 ar  
    15     6    34 ar  
    16     6    40 1   
    17     7    35 1   
    18     7    36 2   
    19     7    41 1   
    20     8    42 1   
    21     8    43 1   
    22     8    68 1   
    23     9    44 1   
    24     9    68 2   
    25    10    11 1   
    26    10    47 1   
    27    11    12 1   
    28    11    14 1   
    29    11    48 1   
    30    12    13 1   
    31    12    49 1   
    32    12    50 1   
    33    13    24 1   
    34    13    51 1   
    35    13    52 1   
    36    14    15 2   
    37    14    16 1   
    38    16    17 1   
    39    16    53 1   
    40    17    23 1   
    41    17    54 1   
    42    17    55 1   
    43    18    19 ar  
    44    18    23 ar  
    45    18    56 1   
    46    19    20 ar  
    47    19    57 1   
    48    20    21 ar  
    49    20    68 1   
    50    21    22 ar  
    51    21    58 1   
    52    22    23 ar  
    53    22    59 1   
    54    24    25 2   
    55    24    71 1   
    56    26    27 1   
    57    26    62 1   
    58    27    28 2   
    59    27    29 2   
    60    27    30 1   
    61    30    63 1   
    62    30    64 1   
    63    30    70 1   
    64    31    70 1   
    65    32    70 1   
    66    33    65 1   
    67    34    35 1   
    68    35    66 1   
    69    36    67 1   
    70    45    71 1   
    71    46    71 1   
    72    60    67 1   
    73    61    67 1   
@<TRIPOS>SUBSTRUCTURE
     1 567         1 TEMP              0 ****  ****    0 ROOT
