@<TRIPOS>MOLECULE
567
   71    73     1     0     0
SMALL
bcc


@<TRIPOS>ATOM
      1 C4           4.6230    -1.4600     1.0160 ca         1 567      -0.097800
      2 C14          0.6360    -0.1450    -0.9790 c          1 567       0.668100
      3 C5           2.1170    -0.0740    -0.6120 c3         1 567       0.180500
      4 C6           4.7440    -1.4040     3.4080 ca         1 567      -0.150000
      5 C11          3.9790    -1.4570     2.2590 ca         1 567      -0.085000
      6 C7           6.8090    -1.3530     2.1290 ca         1 567      -0.125000
      7 C13          5.2820    -1.4680    -1.1230 cc         1 567      -0.103100
      8 N1         -10.4510    -0.3770     0.0880 nv         1 567      -0.966800
      9 N2         -10.3880     1.6600    -1.0960 n2         1 567      -0.828100
     10 N5          -0.1740    -0.4480     0.0510 ns         1 567      -0.571900
     11 C15         -1.5920    -0.6770    -0.0840 c3         1 567       0.028700
     12 C18         -1.9680    -2.1460     0.1450 c3         1 567      -0.075400
     13 C19         -1.2930    -3.0660    -0.8560 c3         1 567      -0.160400
     14 C20         -2.3330     0.1870     0.9320 c          1 567       0.662100
     15 O5          -1.9440     0.2740     2.0860 o          1 567      -0.597100
     16 N6          -3.4430     0.7720     0.4650 ns         1 567      -0.569900
     17 C21         -4.3430     1.5660     1.2740 c3         1 567       0.143300
     18 C16         -6.5880     2.4340     0.5370 ca         1 567      -0.126000
     19 C17         -7.9070     2.2410     0.1550 ca         1 567      -0.099000
     20 C22         -8.4440     0.9590     0.0860 ca         1 567      -0.147900
     21 C23         -7.6260    -0.1260     0.4000 ca         1 567      -0.099000
     22 C24         -6.3070     0.0700     0.7770 ca         1 567      -0.126000
     23 C25         -5.7730     1.3530     0.8540 ca         1 567      -0.091300
     24 C2          -1.7000    -4.5190    -0.7070 c          1 567       0.671100
     25 O2          -2.5410    -4.8910     0.0980 o          1 567      -0.613100
     26 N4           2.7830     0.8960    -1.4460 n7         1 567      -0.860100
     27 S1           3.3460     2.3300    -0.8630 s6         1 567       1.245900
     28 O4           3.6190     3.1400    -2.0420 o          1 567      -0.617300
     29 O3           2.3610     2.7720     0.1160 o          1 567      -0.617300
     30 C9           4.8840     1.9700    -0.0370 c3         1 567      -0.344600
     31 O7           6.6350     3.0000     1.1380 o          1 567      -0.806800
     32 O6           4.9730     4.3100     0.4150 o          1 567      -0.806800
     33 C10          6.1470    -1.3530     3.3410 ca         1 567      -0.106000
     34 C3           6.0330    -1.4050     0.9720 ca         1 567      -0.031200
     35 N7           6.4000    -1.4140    -0.3420 na         1 567      -0.162400
     36 C12          4.1620    -1.4990    -0.3400 cd         1 567      -0.164400
     37 H5           2.2160     0.2150     0.4380 h1         1 567       0.083700
     38 H6           4.2600    -1.4020     4.3760 ha         1 567       0.125000
     39 H11          2.8980    -1.4990     2.3260 ha         1 567       0.124000
     40 H7           7.8900    -1.3130     2.0810 ha         1 567       0.132000
     41 H13          5.3650    -1.4830    -2.1990 h4         1 567       0.157000
     42 HN1        -10.1370    -0.7850     0.9530 hn         1 567       0.404300
     43 HN1A       -11.4440    -0.4700    -0.0630 hn         1 567       0.404300
     44 HN2        -11.3600     1.4390    -1.2960 hn         1 567       0.366400
     45 HN3         -0.3840    -5.0350    -2.2030 hn         1 567       0.311500
     46 HN3A        -1.2760    -6.3430    -1.5330 hn         1 567       0.311500
     47 HN5          0.2160    -0.5270     0.9780 hn         1 567       0.335500
     48 H15         -1.8740    -0.3910    -1.0990 h1         1 567       0.084700
     49 H18         -1.6990    -2.4320     1.1650 hc         1 567       0.064200
     50 H18A        -3.0530    -2.2370     0.0650 hc         1 567       0.064200
     51 H19         -1.5180    -2.7480    -1.8790 hc         1 567       0.065700
     52 H19A        -0.2050    -3.0030    -0.7570 hc         1 567       0.065700
     53 HN6         -3.6360     0.7190    -0.5230 hn         1 567       0.320500
     54 H21         -4.2100     1.2730     2.3160 h1         1 567       0.067200
     55 H21A        -4.0890     2.6270     1.2070 h1         1 567       0.067200
     56 H16         -6.1900     3.4400     0.5880 ha         1 567       0.140500
     57 H17         -8.5270     3.0920    -0.0920 ha         1 567       0.144000
     58 H23         -8.0050    -1.1380     0.3340 ha         1 567       0.144000
     59 H24         -5.6890    -0.7900     1.0060 ha         1 567       0.140500
     60 H1           2.1490    -2.1960    -0.2300 hc         1 567       0.044700
     61 H1A          2.6700    -1.7590    -1.8440 hc         1 567       0.044700
     62 HN4          3.2790     0.5490    -2.2580 hn         1 567       0.426800
     63 H9           5.5330     1.4940    -0.7750 h1         1 567       0.072700
     64 H9A          4.6810     1.2250     0.7370 h1         1 567       0.072700
     65 H10          6.7210    -1.3110     4.2580 ha         1 567       0.124000
     66 HN7          7.3450    -1.3950    -0.6870 hn         1 567       0.301700
     67 C1           2.7450    -1.4710    -0.7910 c3         1 567      -0.012200
     68 C26         -9.8590     0.7770    -0.3400 ce         1 567       0.661800
     69 O1           0.2560     0.0060    -2.1260 o          1 567      -0.600100
     70 C8           5.5600     3.2280     0.5650 c          1 567       0.974600
     71 N3          -1.0570    -5.3610    -1.5310 nt         1 567      -0.682000
@<TRIPOS>BOND
     1     1     5 ar  
     2     1    34 ar  
     3     1    36 1   
     4     2     3 1   
     5     2    10 1   
     6     2    69 2   
     7     3    26 1   
     8     3    37 1   
     9     3    67 1   
    10     4     5 ar  
    11     4    33 ar  
    12     4    38 1   
    13     5    39 1   
    14     6    33 ar  
    15     6    34 ar  
    16     6    40 1   
    17     7    35 1   
    18     7    36 2   
    19     7    41 1   
    20     8    42 1   
    21     8    43 1   
    22     8    68 1   
    23     9    44 1   
    24     9    68 2   
    25    10    11 1   
    26    10    47 1   
    27    11    12 1   
    28    11    14 1   
    29    11    48 1   
    30    12    13 1   
    31    12    49 1   
    32    12    50 1   
    33    13    24 1   
    34    13    51 1   
    35    13    52 1   
    36    14    15 2   
    37    14    16 1   
    38    16    17 1   
    39    16    53 1   
    40    17    23 1   
    41    17    54 1   
    42    17    55 1   
    43    18    19 ar  
    44    18    23 ar  
    45    18    56 1   
    46    19    20 ar  
    47    19    57 1   
    48    20    21 ar  
    49    20    68 1   
    50    21    22 ar  
    51    21    58 1   
    52    22    23 ar  
    53    22    59 1   
    54    24    25 2   
    55    24    71 1   
    56    26    27 1   
    57    26    62 1   
    58    27    28 2   
    59    27    29 2   
    60    27    30 1   
    61    30    63 1   
    62    30    64 1   
    63    30    70 1   
    64    31    70 1   
    65    32    70 1   
    66    33    65 1   
    67    34    35 1   
    68    35    66 1   
    69    36    67 1   
    70    45    71 1   
    71    46    71 1   
    72    60    67 1   
    73    61    67 1   
@<TRIPOS>SUBSTRUCTURE
     1 567         1 TEMP              0 ****  ****    0 ROOT
