@<TRIPOS>MOLECULE
568
   85    89     1     0     0
SMALL
No Charge or Current Charge


@<TRIPOS>ATOM
      1 O1           1.0730     0.9190     6.7430 os         1 568      -0.443000
      2 C2          -0.2980     1.1760     6.3650 c5         1 568       0.132600
      3 C3          -0.6820     0.0050     5.3990 c5         1 568       0.082700
      4 C4           0.6190    -0.8530     5.3270 c5         1 568      -0.132400
      5 C5           1.2570    -0.5110     6.6950 c5         1 568       0.155300
      6 C6           2.7590    -0.8920     6.8330 c3         1 568       0.157600
      7 O7           3.2270    -0.7120     8.1830 oh         1 568      -0.709000
      8 N8          -0.8120     0.6020     4.0610 ns         1 568      -0.497900
      9 C9          -1.6480     0.0060     3.1310 c          1 568       0.565100
     10 O10         -2.3190    -0.9820     3.4090 o          1 568      -0.577100
     11 C11         -1.6260     0.6510     1.7040 c3         1 568       0.074300
     12 O12         -2.1700    -0.2400     0.6930 os         1 568      -0.429000
     13 C13         -3.6020    -0.2810     0.5830 c3         1 568       0.214900
     14 C14         -3.9390    -0.8430    -0.7920 ca         1 568      -0.099300
     15 C15         -4.5690    -2.0960    -0.9270 ca         1 568      -0.091500
     16 C16         -4.8630    -2.6060    -2.2050 ca         1 568      -0.113500
     17 C17         -4.5300    -1.8650    -3.3530 ca         1 568      -0.104000
     18 C18         -3.9030    -0.6150    -3.2230 ca         1 568      -0.113500
     19 C19         -3.6070    -0.1060    -1.9470 ca         1 568      -0.091500
     20 C20         -0.1850     1.0640     1.2490 c3         1 568       0.148300
     21 O21          0.2510     2.2360     1.9830 oh         1 568      -0.716000
     22 C22         -0.0510     1.3260    -0.2990 c3         1 568       0.130300
     23 O23         -0.7880     2.5220    -0.6640 oh         1 568      -0.721000
     24 C24          1.4200     1.4180    -0.8260 c3         1 568       0.077300
     25 C25          1.5150     1.2370    -2.3830 c          1 568       0.568100
     26 N26          0.4280     1.6880    -3.1070 ns         1 568      -0.493900
     27 C27          0.3760     1.4530    -4.5550 c5         1 568       0.165000
     28 C28         -0.5340     2.6260    -5.1560 c5         1 568       0.154300
     29 C29         -1.2410     1.9750    -6.4110 c5         1 568      -0.066100
     30 C30         -1.2950     0.5250    -6.0020 ca         1 568      -0.087300
     31 C31         -0.4140     0.2380    -4.9780 ca         1 568      -0.107300
     32 C32         -0.3120    -1.0640    -4.4590 ca         1 568      -0.071000
     33 C33         -1.1270    -2.0780    -4.9980 ca         1 568      -0.105000
     34 C34         -2.0230    -1.7840    -6.0470 ca         1 568      -0.110000
     35 C35         -2.1100    -0.4740    -6.5570 ca         1 568      -0.101000
     36 O36         -1.5170     3.1280    -4.2320 oh         1 568      -0.659000
     37 O37          2.4550     0.6710    -2.9300 o          1 568      -0.593100
     38 O38          2.2090     0.4240    -0.1180 os         1 568      -0.431000
     39 C39          3.6120     0.7110     0.0200 c3         1 568       0.215900
     40 C40          4.2280    -0.3720     0.8960 ca         1 568      -0.092300
     41 C41          5.1230    -1.3130     0.3490 ca         1 568      -0.089500
     42 C42          5.6830    -2.3140     1.1630 ca         1 568      -0.117000
     43 C43          5.3510    -2.3800     2.5270 ca         1 568      -0.101000
     44 C44          4.4580    -1.4460     3.0770 ca         1 568      -0.117000
     45 C45          3.8980    -0.4440     2.2650 ca         1 568      -0.089500
     46 H2C1        -0.3760     2.1730     5.9110 h1         1 568       0.056200
     47 H2C2        -0.9220     1.1560     7.2680 h1         1 568       0.056200
     48 H3          -1.5620    -0.5500     5.7550 h1         1 568       0.088700
     49 H4C1         1.2860    -0.5600     4.5070 hc         1 568       0.069200
     50 H4C2         0.4080    -1.9220     5.2150 hc         1 568       0.069200
     51 H5           0.6920    -0.9750     7.5160 h1         1 568       0.059700
     52 H6C1         3.3460    -0.2780     6.1360 h1         1 568       0.028200
     53 H6C2         2.8800    -1.9410     6.5320 h1         1 568       0.028200
     54 H7           4.1930    -0.9100     8.1820 ho         1 568       0.502000
     55 H8          -0.2440     1.3780     3.7280 hn         1 568       0.317500
     56 H11         -2.2290     1.5670     1.7560 h1         1 568       0.039700
     57 H131        -4.0420    -0.9040     1.3720 h1         1 568       0.036700
     58 H132        -4.0320     0.7270     0.6620 h1         1 568       0.036700
     59 H15         -4.8260    -2.6780    -0.0440 ha         1 568       0.118500
     60 H16         -5.3470    -3.5750    -2.3050 ha         1 568       0.118000
     61 H17         -4.7560    -2.2600    -4.3410 ha         1 568       0.110000
     62 H18         -3.6410    -0.0410    -4.1080 ha         1 568       0.118000
     63 H19         -3.1140     0.8590    -1.8550 ha         1 568       0.118500
     64 H20          0.4590     0.2060     1.4940 h1         1 568       0.128700
     65 H21         -0.3900     2.9570     1.7890 ho         1 568       0.493000
     66 H22         -0.4830     0.4530    -0.8100 h1         1 568       0.125700
     67 H23         -0.2560     3.3040    -0.3920 ho         1 568       0.497000
     68 H24          1.7930     2.4240    -0.5950 h1         1 568       0.046700
     69 H26         -0.3300     2.1380    -2.5980 hn         1 568       0.348500
     70 H27          1.3650     1.4530    -5.0350 h1         1 568       0.088700
     71 H28          0.1050     3.4620    -5.4750 h1         1 568       0.045700
     72 H291        -2.2300     2.4020    -6.6100 hc         1 568       0.058700
     73 H292        -0.6390     2.1060    -7.3170 hc         1 568       0.058700
     74 H32          0.3850    -1.2870    -3.6550 ha         1 568       0.128000
     75 H33         -1.0640    -3.0910    -4.6060 ha         1 568       0.117000
     76 H34         -2.6500    -2.5710    -6.4620 ha         1 568       0.111000
     77 H35         -2.7990    -0.2410    -7.3650 ha         1 568       0.112000
     78 H36         -2.0280     3.8180    -4.7070 ho         1 568       0.445000
     79 H391         4.1130     0.7330    -0.9560 h1         1 568       0.039700
     80 H392         3.7620     1.6870     0.5010 h1         1 568       0.039700
     81 H41          5.3820    -1.2720    -0.7070 ha         1 568       0.119000
     82 H42          6.3730    -3.0380     0.7360 ha         1 568       0.110500
     83 H43          5.7840    -3.1560     3.1550 ha         1 568       0.112000
     84 H44          4.1990    -1.4990     4.1310 ha         1 568       0.110500
     85 H45          3.2050     0.2760     2.6960 ha         1 568       0.119000
@<TRIPOS>BOND
     1     1     2 1   
     2     1     5 1   
     3     2     3 1   
     4     2    46 1   
     5     2    47 1   
     6     3     4 1   
     7     3     8 1   
     8     3    48 1   
     9     4     5 1   
    10     4    49 1   
    11     4    50 1   
    12     5     6 1   
    13     5    51 1   
    14     6     7 1   
    15     6    52 1   
    16     6    53 1   
    17     7    54 1   
    18     8     9 1   
    19     8    55 1   
    20     9    10 2   
    21     9    11 1   
    22    11    12 1   
    23    11    20 1   
    24    11    56 1   
    25    12    13 1   
    26    13    14 1   
    27    13    57 1   
    28    13    58 1   
    29    14    15 ar  
    30    14    19 ar  
    31    15    16 ar  
    32    15    59 1   
    33    16    17 ar  
    34    16    60 1   
    35    17    18 ar  
    36    17    61 1   
    37    18    19 ar  
    38    18    62 1   
    39    19    63 1   
    40    20    21 1   
    41    20    22 1   
    42    20    64 1   
    43    21    65 1   
    44    22    23 1   
    45    22    24 1   
    46    22    66 1   
    47    23    67 1   
    48    24    25 1   
    49    24    38 1   
    50    24    68 1   
    51    25    26 1   
    52    25    37 2   
    53    26    27 1   
    54    26    69 1   
    55    27    28 1   
    56    27    31 1   
    57    27    70 1   
    58    28    29 1   
    59    28    36 1   
    60    28    71 1   
    61    29    30 1   
    62    29    72 1   
    63    29    73 1   
    64    30    31 ar  
    65    30    35 ar  
    66    31    32 ar  
    67    32    33 ar  
    68    32    74 1   
    69    33    34 ar  
    70    33    75 1   
    71    34    35 ar  
    72    34    76 1   
    73    35    77 1   
    74    36    78 1   
    75    38    39 1   
    76    39    40 1   
    77    39    79 1   
    78    39    80 1   
    79    40    41 ar  
    80    40    45 ar  
    81    41    42 ar  
    82    41    81 1   
    83    42    43 ar  
    84    42    82 1   
    85    43    44 ar  
    86    43    83 1   
    87    44    45 ar  
    88    44    84 1   
    89    45    85 1   
@<TRIPOS>SUBSTRUCTURE
     1 568         1 TEMP              0 ****  ****    0 ROOT
