@<TRIPOS>MOLECULE
568
   85    89     1     0     0
SMALL
bcc


@<TRIPOS>ATOM
      1 O1           0.1010     1.2520     6.5970 os         1 568      -0.396600
      2 C2          -1.1480     0.5980     6.5540 c5         1 568       0.109400
      3 C3          -0.9820    -0.4770     5.4930 c5         1 568       0.082700
      4 C4           0.4420    -0.9580     5.7990 c5         1 568      -0.132400
      5 C5           1.1210     0.2720     6.4340 c5         1 568       0.132100
      6 C6           2.2300     0.8280     5.5720 c3         1 568       0.134400
      7 O7           2.7900     1.9550     6.2010 oh         1 568      -0.586800
      8 N8          -1.1160     0.0990     4.1700 ns         1 568      -0.564900
      9 C9          -1.2550    -0.6490     3.0680 c          1 568       0.632100
     10 O10         -1.3630    -1.8650     3.0910 o          1 568      -0.577100
     11 C11         -1.2610     0.1190     1.7420 c3         1 568       0.051100
     12 O12         -1.9680    -0.5950     0.7780 os         1 568      -0.382600
     13 C13         -3.3650    -0.3780     0.7290 c3         1 568       0.191700
     14 C14         -3.8270    -0.6300    -0.6790 ca         1 568      -0.099300
     15 C15         -4.7420    -1.6350    -0.9680 ca         1 568      -0.109500
     16 C16         -5.1400    -1.8710    -2.2800 ca         1 568      -0.131500
     17 C17         -4.6140    -1.1120    -3.3140 ca         1 568      -0.122000
     18 C18         -3.6970    -0.1060    -3.0350 ca         1 568      -0.131500
     19 C19         -3.3140     0.1360    -1.7260 ca         1 568      -0.109500
     20 C20          0.1880     0.2900     1.2330 c3         1 568       0.125100
     21 O21          0.9150     1.1450     2.0780 oh         1 568      -0.593800
     22 C22          0.1930     0.7480    -0.2280 c3         1 568       0.107100
     23 O23         -0.5650     1.9290    -0.4080 oh         1 568      -0.598800
     24 C24          1.6130     0.9350    -0.8050 c3         1 568       0.054100
     25 C25          1.6030     0.9130    -2.3480 c          1 568       0.635100
     26 N26          0.5820     1.5480    -2.9430 ns         1 568      -0.560900
     27 C27          0.3450     1.4940    -4.3600 c5         1 568       0.165000
     28 C28         -0.4690     2.6950    -4.8710 c5         1 568       0.131100
     29 C29         -1.0470     2.1810    -6.1970 c5         1 568      -0.066100
     30 C30         -1.2690     0.7210    -5.9150 ca         1 568      -0.087300
     31 C31         -0.4780     0.3210    -4.8440 ca         1 568      -0.107300
     32 C32         -0.5220    -0.9790    -4.3750 ca         1 568      -0.089000
     33 C33         -1.3740    -1.8860    -4.9970 ca         1 568      -0.123000
     34 C34         -2.1620    -1.4910    -6.0720 ca         1 568      -0.128000
     35 C35         -2.1150    -0.1800    -6.5390 ca         1 568      -0.119000
     36 O36         -1.4840     2.9350    -3.9220 oh         1 568      -0.596800
     37 O37          2.4860     0.3360    -2.9630 o          1 568      -0.593100
     38 O38          2.4250    -0.0970    -0.3380 os         1 568      -0.384600
     39 C39          3.7840     0.2220    -0.1210 c3         1 568       0.192700
     40 C40          4.3560    -0.7710     0.8510 ca         1 568      -0.092300
     41 C41          5.3820    -1.6290     0.4740 ca         1 568      -0.107500
     42 C42          5.9080    -2.5460     1.3770 ca         1 568      -0.135000
     43 C43          5.4020    -2.6190     2.6660 ca         1 568      -0.119000
     44 C44          4.3720    -1.7670     3.0500 ca         1 568      -0.135000
     45 C45          3.8540    -0.8490     2.1500 ca         1 568      -0.107500
     46 H2C1        -1.9260     1.3290     6.3270 h1         1 568       0.056200
     47 H2C2        -1.3950     0.1250     7.5130 h1         1 568       0.056200
     48 H3          -1.7170    -1.2730     5.6070 h1         1 568       0.088700
     49 H4C1         0.9560    -1.3110     4.9030 hc         1 568       0.069200
     50 H4C2         0.4100    -1.7900     6.5030 hc         1 568       0.069200
     51 H5           1.5310     0.0070     7.4170 h1         1 568       0.059700
     52 H6C1         1.8300     1.0640     4.5770 h1         1 568       0.028200
     53 H6C2         2.9740     0.0300     5.4400 h1         1 568       0.028200
     54 H7           3.4820     2.3040     5.6320 ho         1 568       0.403000
     55 H8          -0.9730     1.0920     4.0680 hn         1 568       0.317500
     56 H11         -1.7030     1.1160     1.8950 h1         1 568       0.039700
     57 H131        -3.8900    -1.0380     1.4300 h1         1 568       0.036700
     58 H132        -3.5960     0.6540     1.0200 h1         1 568       0.036700
     59 H15         -5.1420    -2.2450    -0.1660 ha         1 568       0.136500
     60 H16         -5.8530    -2.6590    -2.4890 ha         1 568       0.136000
     61 H17         -4.9090    -1.3070    -4.3370 ha         1 568       0.128000
     62 H18         -3.2700     0.4860    -3.8350 ha         1 568       0.136000
     63 H19         -2.6070     0.9300    -1.5200 ha         1 568       0.136500
     64 H20          0.6910    -0.6780     1.2780 h1         1 568       0.128700
     65 H21          0.4980     2.0130     2.1140 ho         1 568       0.394000
     66 H22         -0.3190    -0.0210    -0.8090 h1         1 568       0.125700
     67 H23         -0.0990     2.6850    -0.0330 ho         1 568       0.398000
     68 H24          2.0020     1.9150    -0.4810 h1         1 568       0.046700
     69 H26         -0.1420     1.9600    -2.3680 hn         1 568       0.348500
     70 H27          1.3090     1.4930    -4.8770 h1         1 568       0.088700
     71 H28          0.1630     3.5790    -5.0060 h1         1 568       0.045700
     72 H291        -1.9490     2.7180    -6.4980 hc         1 568       0.058700
     73 H292        -0.3130     2.3140    -6.9980 hc         1 568       0.058700
     74 H32          0.0770    -1.2930    -3.5290 ha         1 568       0.146000
     75 H33         -1.4340    -2.9040    -4.6340 ha         1 568       0.135000
     76 H34         -2.8270    -2.2040    -6.5410 ha         1 568       0.129000
     77 H35         -2.7410     0.1280    -7.3670 ha         1 568       0.130000
     78 H36         -1.9370     3.7500    -4.1570 ho         1 568       0.406000
     79 H391         4.3510     0.2020    -1.0560 h1         1 568       0.039700
     80 H392         3.8700     1.2360     0.2900 h1         1 568       0.039700
     81 H41          5.7740    -1.5830    -0.5350 ha         1 568       0.137000
     82 H42          6.7090    -3.2060     1.0690 ha         1 568       0.128500
     83 H43          5.8080    -3.3330     3.3700 ha         1 568       0.130000
     84 H44          3.9760    -1.8190     4.0560 ha         1 568       0.128500
     85 H45          3.0570    -0.1830     2.4570 ha         1 568       0.137000
@<TRIPOS>BOND
     1     1     2 1   
     2     1     5 1   
     3     2     3 1   
     4     2    46 1   
     5     2    47 1   
     6     3     4 1   
     7     3     8 1   
     8     3    48 1   
     9     4     5 1   
    10     4    49 1   
    11     4    50 1   
    12     5     6 1   
    13     5    51 1   
    14     6     7 1   
    15     6    52 1   
    16     6    53 1   
    17     7    54 1   
    18     8     9 1   
    19     8    55 1   
    20     9    10 2   
    21     9    11 1   
    22    11    12 1   
    23    11    20 1   
    24    11    56 1   
    25    12    13 1   
    26    13    14 1   
    27    13    57 1   
    28    13    58 1   
    29    14    15 ar  
    30    14    19 ar  
    31    15    16 ar  
    32    15    59 1   
    33    16    17 ar  
    34    16    60 1   
    35    17    18 ar  
    36    17    61 1   
    37    18    19 ar  
    38    18    62 1   
    39    19    63 1   
    40    20    21 1   
    41    20    22 1   
    42    20    64 1   
    43    21    65 1   
    44    22    23 1   
    45    22    24 1   
    46    22    66 1   
    47    23    67 1   
    48    24    25 1   
    49    24    38 1   
    50    24    68 1   
    51    25    26 1   
    52    25    37 2   
    53    26    27 1   
    54    26    69 1   
    55    27    28 1   
    56    27    31 1   
    57    27    70 1   
    58    28    29 1   
    59    28    36 1   
    60    28    71 1   
    61    29    30 1   
    62    29    72 1   
    63    29    73 1   
    64    30    31 ar  
    65    30    35 ar  
    66    31    32 ar  
    67    32    33 ar  
    68    32    74 1   
    69    33    34 ar  
    70    33    75 1   
    71    34    35 ar  
    72    34    76 1   
    73    35    77 1   
    74    36    78 1   
    75    38    39 1   
    76    39    40 1   
    77    39    79 1   
    78    39    80 1   
    79    40    41 ar  
    80    40    45 ar  
    81    41    42 ar  
    82    41    81 1   
    83    42    43 ar  
    84    42    82 1   
    85    43    44 ar  
    86    43    83 1   
    87    44    45 ar  
    88    44    84 1   
    89    45    85 1   
@<TRIPOS>SUBSTRUCTURE
     1 568         1 TEMP              0 ****  ****    0 ROOT
