@<TRIPOS>MOLECULE
569
   47    50     1     0     0
SMALL
No Charge or Current Charge


@<TRIPOS>ATOM
      1 C1          -0.6800     5.5630    -0.5230 c3         1 569       0.094300
      2 F1          -3.5510    -3.6990    -0.4660 f          1 569      -0.109000
      3 N1          -0.2430     4.2250    -0.0650 n          1 569      -0.380300
      4 O1          -0.8720     3.0350    -1.9590 o          1 569      -0.502000
      5 C2          -0.3980     3.0900    -0.8300 c          1 569       0.551000
      6 F2          -5.5130    -3.6060     0.4600 f          1 569      -0.109000
      7 N2           0.5820     2.6820     1.3750 n2         1 569      -0.709900
      8 O2          -4.0440    -1.8980     0.9100 os         1 569      -0.404100
      9 C3           0.1710     1.9670     0.1080 c5         1 569       0.168800
     10 F3          -5.0300    -2.2420    -1.1610 f          1 569      -0.109000
     11 N3           0.5450     4.8980     2.0190 nv         1 569      -1.032200
     12 C4           0.3090     3.8990     1.1490 c2         1 569       0.682800
     13 F4           4.8240    -0.6160    -2.0100 f          1 569      -0.173000
     14 N4           3.7190    -3.3080     2.1570 nb         1 569      -0.172500
     15 C5          -0.9580     0.9350     0.3290 ca         1 569      -0.068300
     16 N5           4.2510    -4.1960    -0.0190 nb         1 569      -0.172500
     17 C6          -1.3290     0.0710    -0.7250 ca         1 569      -0.076000
     18 C7          -2.3500    -0.8820    -0.5620 ca         1 569      -0.106000
     19 C8          -3.0300    -0.9870     0.6700 ca         1 569       0.097100
     20 C9          -2.6720    -0.1290     1.7200 ca         1 569      -0.106000
     21 C10         -1.6510     0.8220     1.5570 ca         1 569      -0.076000
     22 C11         -4.5230    -2.8490    -0.0630 c3         1 569       0.515000
     23 C12          1.4200     1.2810    -0.4890 ca         1 569      -0.087300
     24 C13          2.1600     1.8430    -1.5540 ca         1 569      -0.071000
     25 C14          3.2930     1.1840    -2.0590 ca         1 569      -0.157000
     26 C15          3.7090    -0.0360    -1.5110 ca         1 569       0.190000
     27 C16          3.0020    -0.6270    -0.4320 cp         1 569      -0.082000
     28 C17          1.8670     0.0600     0.0660 ca         1 569      -0.040000
     29 C18          3.4210    -1.9260     0.1870 cp         1 569      -0.135000
     30 C19          3.3540    -2.1420     1.5870 ca         1 569       0.122400
     31 C20          4.1510    -4.2770     1.3230 ca         1 569       0.118900
     32 C21          3.8860    -3.0250    -0.5810 ca         1 569       0.122400
     33 H1          -1.2560     6.0590     0.2690 h1         1 569       0.053367
     34 H1A          0.1980     6.1730    -0.7700 h1         1 569       0.053367
     35 H1B         -1.3160     5.4800    -1.4130 h1         1 569       0.053367
     36 HN3          1.1400     4.5880     2.7780 hn         1 569       0.494500
     37 HN3A         0.8520     5.7580     1.5830 hn         1 569       0.494500
     38 H6          -0.8190     0.1360    -1.6850 ha         1 569       0.135000
     39 H7          -2.5930    -1.5220    -1.4040 ha         1 569       0.136000
     40 H9          -3.1920    -0.2030     2.6720 ha         1 569       0.136000
     41 H10         -1.4060     1.4680     2.3970 ha         1 569       0.135000
     42 H13          1.8770     2.7940    -1.9990 ha         1 569       0.136000
     43 H14          3.8580     1.6260    -2.8760 ha         1 569       0.137000
     44 H17          1.3150    -0.3730     0.8970 ha         1 569       0.141000
     45 H19          3.0120    -1.3600     2.2630 h4         1 569       0.030100
     46 H20          4.4450    -5.2200     1.7800 h5         1 569       0.051100
     47 H21          3.9510    -2.9720    -1.6660 h4         1 569       0.030100
@<TRIPOS>BOND
     1     1     3 1   
     2     1    33 1   
     3     1    34 1   
     4     1    35 1   
     5     2    22 1   
     6     3     5 1   
     7     3    12 1   
     8     4     5 2   
     9     5     9 1   
    10     6    22 1   
    11     7     9 1   
    12     7    12 2   
    13     8    19 1   
    14     8    22 1   
    15     9    15 1   
    16     9    23 1   
    17    10    22 1   
    18    11    12 1   
    19    11    36 1   
    20    11    37 1   
    21    13    26 1   
    22    14    30 ar  
    23    14    31 ar  
    24    15    17 ar  
    25    15    21 ar  
    26    16    31 ar  
    27    16    32 ar  
    28    17    18 ar  
    29    17    38 1   
    30    18    19 ar  
    31    18    39 1   
    32    19    20 ar  
    33    20    21 ar  
    34    20    40 1   
    35    21    41 1   
    36    23    24 ar  
    37    23    28 ar  
    38    24    25 ar  
    39    24    42 1   
    40    25    26 ar  
    41    25    43 1   
    42    26    27 ar  
    43    27    28 ar  
    44    27    29 1   
    45    28    44 1   
    46    29    30 ar  
    47    29    32 ar  
    48    30    45 1   
    49    31    46 1   
    50    32    47 1   
@<TRIPOS>SUBSTRUCTURE
     1 569         1 TEMP              0 ****  ****    0 ROOT
