@<TRIPOS>MOLECULE
569
   47    50     1     0     0
SMALL
abcg2


@<TRIPOS>ATOM
      1 C1          -0.2050     5.4810     0.1600 c3         1 569       0.094300
      2 F1          -3.9950    -3.0520     1.2080 f          1 569      -0.109000
      3 N1           0.0070     4.0590     0.2970 n          1 569      -0.380300
      4 O1          -0.7150     3.3380    -1.7560 o          1 569      -0.502000
      5 C2          -0.2650     3.1260    -0.6540 c          1 569       0.551000
      6 F2          -5.8200    -3.1580     0.0650 f          1 569      -0.109000
      7 N2           0.5020     2.1230     1.3430 n2         1 569      -0.709900
      8 O2          -4.6610    -1.3530    -0.0660 os         1 569      -0.404100
      9 C3           0.0860     1.7780     0.0020 c5         1 569       0.168800
     10 F3          -3.9080    -3.2640    -0.9210 f          1 569      -0.109000
     11 N3           0.7110     4.1150     2.5450 nv         1 569      -1.032200
     12 C4           0.4430     3.4000     1.4420 c2         1 569       0.682800
     13 F4           4.2770    -1.0850    -2.4410 f          1 569      -0.173000
     14 N4           4.7660    -2.2510     2.2760 nb         1 569      -0.172500
     15 C5          -1.1680     0.9110    -0.0060 ca         1 569      -0.068300
     16 N5           4.5270    -3.8620     0.5650 nb         1 569      -0.172500
     17 C6          -1.6480     0.3820    -1.2020 ca         1 569      -0.076000
     18 C7          -2.8000    -0.3870    -1.2280 ca         1 569      -0.106000
     19 C8          -3.4730    -0.6290    -0.0420 ca         1 569       0.097100
     20 C9          -3.0200    -0.1150     1.1570 ca         1 569      -0.106000
     21 C10         -1.8660     0.6580     1.1680 ca         1 569      -0.076000
     22 C11         -4.5850    -2.6820     0.0700 c3         1 569       0.515000
     23 C12          1.2230     1.0530    -0.7120 ca         1 569      -0.087300
     24 C13          1.5810     1.2750    -2.0350 ca         1 569      -0.071000
     25 C14          2.6100     0.5490    -2.6220 ca         1 569      -0.157000
     26 C15          3.2680    -0.4040    -1.8780 ca         1 569       0.190000
     27 C16          2.9380    -0.6670    -0.5530 cp         1 569      -0.082000
     28 C17          1.9110     0.0820     0.0110 ca         1 569      -0.040000
     29 C18          3.6600    -1.6680     0.2460 cp         1 569      -0.135000
     30 C19          4.1350    -1.3660     1.5190 ca         1 569       0.122400
     31 C20          4.9350    -3.4580     1.7590 ca         1 569       0.118900
     32 C21          3.8930    -2.9710    -0.1830 ca         1 569       0.122400
     33 H1          -0.9690     5.8300     0.8540 h1         1 569       0.053367
     34 H1A          0.7190     6.0300     0.3340 h1         1 569       0.053367
     35 H1B         -0.5370     5.6850    -0.8540 h1         1 569       0.053367
     36 HN3          1.1660     3.6280     3.3000 hn         1 569       0.494500
     37 HN3A         0.9300     5.0950     2.4760 hn         1 569       0.494500
     38 H6          -1.1250     0.5570    -2.1320 ha         1 569       0.135000
     39 H7          -3.1730    -0.7770    -2.1660 ha         1 569       0.136000
     40 H9          -3.5620    -0.2960     2.0760 ha         1 569       0.136000
     41 H10         -1.5060     1.0590     2.1040 ha         1 569       0.135000
     42 H13          1.0730     2.0140    -2.6390 ha         1 569       0.136000
     43 H14          2.8990     0.7330    -3.6480 ha         1 569       0.137000
     44 H17          1.6340    -0.1050     1.0400 ha         1 569       0.141000
     45 H19          4.0030    -0.3700     1.9310 h4         1 569       0.030100
     46 H20          5.4540    -4.1870     2.3720 h5         1 569       0.051100
     47 H21          3.5370    -3.3130    -1.1480 h4         1 569       0.030100
@<TRIPOS>BOND
     1     1     3 1   
     2     1    33 1   
     3     1    34 1   
     4     1    35 1   
     5     2    22 1   
     6     3     5 1   
     7     3    12 1   
     8     4     5 2   
     9     5     9 1   
    10     6    22 1   
    11     7     9 1   
    12     7    12 2   
    13     8    19 1   
    14     8    22 1   
    15     9    15 1   
    16     9    23 1   
    17    10    22 1   
    18    11    12 1   
    19    11    36 1   
    20    11    37 1   
    21    13    26 1   
    22    14    30 ar  
    23    14    31 ar  
    24    15    17 ar  
    25    15    21 ar  
    26    16    31 ar  
    27    16    32 ar  
    28    17    18 ar  
    29    17    38 1   
    30    18    19 ar  
    31    18    39 1   
    32    19    20 ar  
    33    20    21 ar  
    34    20    40 1   
    35    21    41 1   
    36    23    24 ar  
    37    23    28 ar  
    38    24    25 ar  
    39    24    42 1   
    40    25    26 ar  
    41    25    43 1   
    42    26    27 ar  
    43    27    28 ar  
    44    27    29 1   
    45    28    44 1   
    46    29    30 ar  
    47    29    32 ar  
    48    30    45 1   
    49    31    46 1   
    50    32    47 1   
@<TRIPOS>SUBSTRUCTURE
     1 569         1 TEMP              0 ****  ****    0 ROOT
