@<TRIPOS>MOLECULE
56A
   53    54     1     0     0
SMALL
bcc


@<TRIPOS>ATOM
      1 C            1.5950    24.5890    14.1780 c          1 56A       0.931600
      2 N            2.2370    25.3110    16.4720 n8         1 56A      -0.898800
      3 O            2.4630    25.3990    13.8000 o          1 56A      -0.830800
      4 CA           1.4190    24.3880    15.7040 c3         1 56A       0.020500
      5 CB          -0.0580    24.5180    16.1020 c3         1 56A       0.026900
      6 CG          -0.6530    25.8490    15.7930 cc         1 56A      -0.152900
      7 C28         -1.3600    26.4700    18.9830 c3         1 56A      -0.100400
      8 C29         -0.9110    26.4950    20.4380 c3         1 56A      -0.073400
      9 C30         -2.0230    26.0890    21.3970 c3         1 56A      -0.076400
     10 C31         -1.5890    26.1070    22.8570 c3         1 56A      -0.074400
     11 C32         -2.7150    25.8170    23.8460 c3         1 56A      -0.073400
     12 C33         -3.2970    24.4140    23.7300 c3         1 56A      -0.071400
     13 C34         -4.3850    24.1160    24.7660 c3         1 56A      -0.033100
     14 C35         -3.8800    24.1430    26.1830 ca         1 56A      -0.070300
     15 C36         -4.2380    25.1620    27.0610 ca         1 56A      -0.126500
     16 C37         -3.7510    25.1910    28.3630 ca         1 56A      -0.128500
     17 C38         -2.8920    24.1960    28.8080 ca         1 56A      -0.135000
     18 C39         -2.5270    23.1720    27.9420 ca         1 56A      -0.128500
     19 C40         -3.0180    23.1480    26.6440 ca         1 56A      -0.126500
     20 ND1         -0.6790    26.9200    16.6510 na         1 56A      -0.175900
     21 CD2         -1.2500    26.3110    14.6480 cd         1 56A       0.296200
     22 CE1         -1.2800    27.9420    16.0030 cc         1 56A       0.348400
     23 NE2         -1.6350    27.6140    14.7870 nd         1 56A      -0.691000
     24 OXT          0.8580    23.8890    13.4540 o          1 56A      -0.830800
     25 HN           2.5110    24.8870    17.3490 hn         1 56A       0.327800
     26 HNA          3.0830    25.5030    15.9520 hn         1 56A       0.327800
     27 HA           1.6950    23.3380    15.8990 h1         1 56A       0.001700
     28 HB          -0.6260    23.7540    15.5710 hc         1 56A       0.031200
     29 HBA         -0.1670    24.2880    17.1660 hc         1 56A       0.031200
     30 H27          0.6330    26.3410    18.1350 h1         1 56A       0.064200
     31 H27A         0.0160    27.9740    18.2800 h1         1 56A       0.064200
     32 H28         -2.2440    27.1020    18.8600 hc         1 56A       0.047200
     33 H28A        -1.6620    25.4540    18.7100 hc         1 56A       0.047200
     34 H29         -0.0540    25.8250    20.5660 hc         1 56A       0.036700
     35 H29A        -0.5550    27.4980    20.6950 hc         1 56A       0.036700
     36 H30         -2.8760    26.7640    21.2670 hc         1 56A       0.037700
     37 H30A        -2.3820    25.0920    21.1230 hc         1 56A       0.037700
     38 H31         -0.7790    25.3850    23.0060 hc         1 56A       0.037200
     39 H31A        -1.1640    27.0890    23.0870 hc         1 56A       0.037200
     40 H32         -2.3370    25.9680    24.8620 hc         1 56A       0.037200
     41 H32A        -3.5140    26.5540    23.7080 hc         1 56A       0.037200
     42 H33         -3.7280    24.2680    22.7360 hc         1 56A       0.042700
     43 H33A        -2.4940    23.6760    23.8240 hc         1 56A       0.042700
     44 H34         -5.1990    24.8370    24.6530 hc         1 56A       0.045200
     45 H34A        -4.8110    23.1320    24.5530 hc         1 56A       0.045200
     46 H36         -4.9060    25.9450    26.7230 ha         1 56A       0.128500
     47 H37         -4.0430    25.9930    29.0280 ha         1 56A       0.126500
     48 H38         -2.5100    24.2160    29.8210 ha         1 56A       0.126000
     49 H39         -1.8600    22.3880    28.2790 ha         1 56A       0.126500
     50 H40         -2.7280    22.3420    25.9790 ha         1 56A       0.128500
     51 HD2         -1.4040    25.7620    13.7320 h4         1 56A       0.051100
     52 HE1         -1.4270    28.9040    16.4720 h5         1 56A       0.027100
     53 C27         -0.2660    26.9480    18.0390 c3         1 56A       0.044300
@<TRIPOS>BOND
     1     1     3 1   
     2     1     4 1   
     3     1    24 1   
     4     2     4 1   
     5     2    25 1   
     6     2    26 1   
     7     4     5 1   
     8     4    27 1   
     9     5     6 1   
    10     5    28 1   
    11     5    29 1   
    12     6    20 1   
    13     6    21 2   
    14     7     8 1   
    15     7    32 1   
    16     7    33 1   
    17     7    53 1   
    18     8     9 1   
    19     8    34 1   
    20     8    35 1   
    21     9    10 1   
    22     9    36 1   
    23     9    37 1   
    24    10    11 1   
    25    10    38 1   
    26    10    39 1   
    27    11    12 1   
    28    11    40 1   
    29    11    41 1   
    30    12    13 1   
    31    12    42 1   
    32    12    43 1   
    33    13    14 1   
    34    13    44 1   
    35    13    45 1   
    36    14    15 ar  
    37    14    19 ar  
    38    15    16 ar  
    39    15    46 1   
    40    16    17 ar  
    41    16    47 1   
    42    17    18 ar  
    43    17    48 1   
    44    18    19 ar  
    45    18    49 1   
    46    19    50 1   
    47    20    22 1   
    48    20    53 1   
    49    21    23 1   
    50    21    51 1   
    51    22    23 2   
    52    22    52 1   
    53    30    53 1   
    54    31    53 1   
@<TRIPOS>SUBSTRUCTURE
     1 56A         1 TEMP              0 ****  ****    0 ROOT
