@<TRIPOS>MOLECULE
56A
   53    54     1     0     0
SMALL
No Charge or Current Charge


@<TRIPOS>ATOM
      1 C            1.5010    24.4390    13.9480 c          1 56A       0.721000
      2 N            2.4420    25.1120    16.3440 n8         1 56A      -1.009200
      3 O            2.2530    25.2610    13.4370 o          1 56A      -0.725500
      4 CA           1.4280    24.3330    15.5340 c3         1 56A       0.020500
      5 CB          -0.0210    24.5920    16.0400 c3         1 56A       0.026900
      6 CG          -0.5640    25.9700    15.7270 cc         1 56A      -0.138300
      7 C28         -1.3840    26.5970    18.9740 c3         1 56A      -0.100400
      8 C29         -0.9600    26.6220    20.4580 c3         1 56A      -0.073400
      9 C30         -2.0800    26.1530    21.4130 c3         1 56A      -0.076400
     10 C31         -1.6520    26.1750    22.9000 c3         1 56A      -0.074400
     11 C32         -2.7740    25.7990    23.8970 c3         1 56A      -0.073400
     12 C33         -3.2610    24.3320    23.7930 c3         1 56A      -0.071400
     13 C34         -4.3480    23.9630    24.8280 c3         1 56A      -0.033100
     14 C35         -3.8610    24.0520    26.2700 ca         1 56A      -0.070300
     15 C36         -4.3010    25.0950    27.1100 ca         1 56A      -0.108500
     16 C37         -3.8470    25.1770    28.4370 ca         1 56A      -0.110500
     17 C38         -2.9510    24.2160    28.9350 ca         1 56A      -0.117000
     18 C39         -2.5100    23.1730    28.1040 ca         1 56A      -0.110500
     19 C40         -2.9640    23.0910    26.7760 ca         1 56A      -0.108500
     20 ND1         -0.6670    27.0340    16.6070 na         1 56A      -0.154500
     21 CD2         -1.0950    26.4300    14.5450 cd         1 56A       0.230900
     22 CE1         -1.2360    28.0830    15.9160 cc         1 56A       0.348400
     23 NE2         -1.5090    27.7420    14.6660 nd         1 56A      -0.691000
     24 OXT          0.8520    23.6380    13.2870 o          1 56A      -0.725500
     25 HN           2.4540    24.7610    17.3080 hn         1 56A       0.383000
     26 HNA          3.3830    24.9040    15.9890 hn         1 56A       0.383000
     27 HA           1.6500    23.2800    15.7560 h1         1 56A       0.001700
     28 HB          -0.6840    23.8430    15.5900 hc         1 56A       0.031200
     29 HBA         -0.0640    24.3990    17.1190 hc         1 56A       0.031200
     30 H27          0.6220    26.4330    18.1560 h1         1 56A       0.064200
     31 H27A         0.0250    28.0930    18.2800 h1         1 56A       0.064200
     32 H28         -2.2620    27.2400    18.8370 hc         1 56A       0.047200
     33 H28A        -1.6860    25.5790    18.7010 hc         1 56A       0.047200
     34 H29         -0.0800    25.9800    20.5920 hc         1 56A       0.036700
     35 H29A        -0.6570    27.6410    20.7300 hc         1 56A       0.036700
     36 H30         -2.9580    26.7970    21.2810 hc         1 56A       0.037700
     37 H30A        -2.3790    25.1370    21.1310 hc         1 56A       0.037700
     38 H31         -0.8000    25.4990    23.0440 hc         1 56A       0.037200
     39 H31A        -1.2960    27.1830    23.1480 hc         1 56A       0.037200
     40 H32         -2.3990    25.9790    24.9110 hc         1 56A       0.037200
     41 H32A        -3.6260    26.4760    23.7550 hc         1 56A       0.037200
     42 H33         -3.6700    24.1540    22.7920 hc         1 56A       0.042700
     43 H33A        -2.4050    23.6560    23.9090 hc         1 56A       0.042700
     44 H34         -5.2210    24.6100    24.6740 hc         1 56A       0.045200
     45 H34A        -4.6930    22.9420    24.6230 hc         1 56A       0.045200
     46 H36         -4.9920    25.8460    26.7320 ha         1 56A       0.110500
     47 H37         -4.1890    25.9850    29.0800 ha         1 56A       0.108500
     48 H38         -2.6000    24.2790    29.9630 ha         1 56A       0.108000
     49 H39         -1.8170    22.4280    28.4880 ha         1 56A       0.108500
     50 H40         -2.6170    22.2810    26.1390 ha         1 56A       0.110500
     51 HD2         -1.2050    25.8840    13.6150 h4         1 56A       0.051100
     52 HE1         -1.4280    29.0450    16.3760 h5         1 56A       0.027100
     53 C27         -0.2630    27.0660    18.0220 c3         1 56A       0.073600
@<TRIPOS>BOND
     1     1     3 1   
     2     1     4 1   
     3     1    24 1   
     4     2     4 1   
     5     2    25 1   
     6     2    26 1   
     7     4     5 1   
     8     4    27 1   
     9     5     6 1   
    10     5    28 1   
    11     5    29 1   
    12     6    20 1   
    13     6    21 2   
    14     7     8 1   
    15     7    32 1   
    16     7    33 1   
    17     7    53 1   
    18     8     9 1   
    19     8    34 1   
    20     8    35 1   
    21     9    10 1   
    22     9    36 1   
    23     9    37 1   
    24    10    11 1   
    25    10    38 1   
    26    10    39 1   
    27    11    12 1   
    28    11    40 1   
    29    11    41 1   
    30    12    13 1   
    31    12    42 1   
    32    12    43 1   
    33    13    14 1   
    34    13    44 1   
    35    13    45 1   
    36    14    15 ar  
    37    14    19 ar  
    38    15    16 ar  
    39    15    46 1   
    40    16    17 ar  
    41    16    47 1   
    42    17    18 ar  
    43    17    48 1   
    44    18    19 ar  
    45    18    49 1   
    46    19    50 1   
    47    20    22 1   
    48    20    53 1   
    49    21    23 1   
    50    21    51 1   
    51    22    23 2   
    52    22    52 1   
    53    30    53 1   
    54    31    53 1   
@<TRIPOS>SUBSTRUCTURE
     1 56A         1 TEMP              0 ****  ****    0 ROOT
