@<TRIPOS>MOLECULE
56C
   55    54     1     0     0
SMALL
bcc


@<TRIPOS>ATOM
      1 N          -19.6000    16.9160   -19.2360 n8         1 56C      -0.900800
      2 CA         -19.2990    18.0590   -20.0860 c3         1 56C       0.005500
      3 C          -19.5920    19.4520   -19.4660 c          1 56C       0.904600
      4 O          -19.2930    20.4370   -20.1760 o          1 56C      -0.833800
      5 CB         -20.0240    17.9120   -21.4270 c3         1 56C      -0.050400
      6 CG         -19.7670    16.6040   -22.1710 c3         1 56C      -0.078400
      7 CD         -18.2990    16.3810   -22.4990 c3         1 56C       0.211800
      8 NE         -18.1360    15.1920   -23.3080 nu         1 56C      -0.838200
      9 CZ         -16.8900    14.8240   -23.7380 c2         1 56C       0.805100
     10 NH1        -15.8810    15.5920   -23.5270 n2         1 56C      -0.876100
     11 C01        -17.5810    11.7120   -25.6780 c3         1 56C       0.119400
     12 N01        -16.8290    13.6480   -24.4530 nu         1 56C      -0.910200
     13 O01        -18.6130    10.7680   -25.7540 os         1 56C      -0.396600
     14 C02        -17.9090    12.6950   -24.5670 c3         1 56C       0.215800
     15 N02        -16.7910     8.1810   -20.6750 n2         1 56C      -0.045200
     16 O02        -19.7070     8.1660   -25.4710 os         1 56C      -0.379600
     17 C03        -18.3900     9.7940   -26.7420 c3         1 56C       0.102400
     18 N03        -16.2020     8.4230   -19.7150 n1         1 56C       0.224000
     19 C04        -19.5200     8.7850   -26.7190 c3         1 56C       0.133400
     20 N04        -15.6780     8.5100   -18.6720 n2         1 56C      -0.218400
     21 O04        -18.5160     8.2510   -22.9040 os         1 56C      -0.358600
     22 C05        -18.7330     7.2170   -25.1170 c3         1 56C       0.104400
     23 C06        -18.7320     7.0470   -23.6120 c3         1 56C       0.117400
     24 C07        -17.2390     8.8070   -22.9840 c3         1 56C       0.139400
     25 C08        -16.2490     8.1310   -22.0530 c3         1 56C       0.087800
     26 H1         -19.1630    17.0630   -18.3350 hn         1 56C       0.325800
     27 H2         -20.5940    16.9230   -19.0340 hn         1 56C       0.325800
     28 H4         -18.2200    18.0380   -20.2830 h1         1 56C       0.039700
     29 OXT        -20.0830    19.4830   -18.3210 o          1 56C      -0.833800
     30 H6         -19.7450    18.7500   -22.0680 hc         1 56C       0.047700
     31 H7         -21.1030    18.0050   -21.2570 hc         1 56C       0.047700
     32 H8         -20.1420    15.7600   -21.5860 hc         1 56C       0.023700
     33 H9         -20.3400    16.6140   -23.1040 hc         1 56C       0.023700
     34 H10        -17.9110    17.2400   -23.0520 h1         1 56C       0.063200
     35 H11        -17.7120    16.3160   -21.5760 h1         1 56C       0.063200
     36 H12        -18.7770    14.4470   -23.0840 hn         1 56C       0.401800
     37 H13        -15.0550    15.2300   -23.9890 hn         1 56C       0.361400
     38 H14        -16.6180    11.2210   -25.4670 h1         1 56C       0.022700
     39 H15        -17.4630    12.2560   -26.6250 h1         1 56C       0.022700
     40 H16        -18.8310    13.2190   -24.8250 h1         1 56C       0.048200
     41 H17        -17.4180     9.3060   -26.5870 h1         1 56C       0.024200
     42 H18        -18.3550    10.2410   -27.7460 h1         1 56C       0.024200
     43 H19        -20.4600     9.2890   -26.9540 h1         1 56C       0.065700
     44 H20        -19.3390     8.0530   -27.5180 h1         1 56C       0.065700
     45 H21        -15.5990     9.4620   -18.2910 hn         1 56C       0.527400
     46 H22        -17.7340     7.5040   -25.4670 h1         1 56C       0.029200
     47 H23        -18.9440     6.2380   -25.5690 h1         1 56C       0.029200
     48 H24        -19.7060     6.6830   -23.2780 h1         1 56C       0.061700
     49 H25        -17.9980     6.2740   -23.3540 h1         1 56C       0.061700
     50 H26        -17.3250     9.8630   -22.7210 h1         1 56C       0.092200
     51 H27        -16.7970     8.7660   -23.9860 h1         1 56C       0.092200
     52 H28        -16.1380     7.0660   -22.2610 h1         1 56C       0.107200
     53 H29        -15.2700     8.6090   -22.0780 h1         1 56C       0.107200
     54 H30        -15.9050    13.2460   -24.4860 hn         1 56C       0.395800
     55 H3         -18.0890    12.1440   -23.6350 h1         1 56C       0.048200
@<TRIPOS>BOND
     1     1     2 1   
     2     1    26 1   
     3     1    27 1   
     4     2     3 1   
     5     2     5 1   
     6     2    28 1   
     7     3     4 1   
     8     3    29 1   
     9     5     6 1   
    10     5    30 1   
    11     5    31 1   
    12     6     7 1   
    13     6    32 1   
    14     6    33 1   
    15     7     8 1   
    16     7    34 1   
    17     7    35 1   
    18     8     9 1   
    19     8    36 1   
    20     9    10 2   
    21     9    12 1   
    22    10    37 1   
    23    11    13 1   
    24    11    14 1   
    25    11    38 1   
    26    11    39 1   
    27    12    14 1   
    28    12    54 1   
    29    13    17 1   
    30    14    40 1   
    31    14    55 1   
    32    15    18 2   
    33    15    25 1   
    34    16    19 1   
    35    16    22 1   
    36    17    19 1   
    37    17    41 1   
    38    17    42 1   
    39    18    20 2   
    40    19    43 1   
    41    19    44 1   
    42    20    45 1   
    43    21    23 1   
    44    21    24 1   
    45    22    23 1   
    46    22    46 1   
    47    22    47 1   
    48    23    48 1   
    49    23    49 1   
    50    24    25 1   
    51    24    50 1   
    52    24    51 1   
    53    25    52 1   
    54    25    53 1   
@<TRIPOS>SUBSTRUCTURE
     1 56C         1 TEMP              0 ****  ****    0 ROOT
