@<TRIPOS>MOLECULE
56D
   22    22     1     0     0
SMALL
bcc


@<TRIPOS>ATOM
      1 OAL         -3.6360    -0.8110     0.2830 o          1 56D      -0.800300
      2 CAI         -2.7960     0.0980     0.3100 c          1 56D       0.860600
      3 OAM         -2.9660     1.3120     0.5170 o          1 56D      -0.800300
      4 CAH         -1.3210    -0.3460     0.0710 c          1 56D       0.434100
      5 OAK         -1.0000    -1.5010     0.2090 o          1 56D      -0.550100
      6 CAG         -0.3360     0.7310    -0.3530 c3         1 56D      -0.146400
      7 CAJ         -0.6230     1.0910    -1.8190 c3         1 56D      -0.064100
      8 CAD          1.0930     0.3290    -0.1160 ca         1 56D      -0.033300
      9 CAC          1.7250    -0.6440    -0.8890 ca         1 56D      -0.119000
     10 CAB          3.0430    -1.0020    -0.6440 ca         1 56D      -0.140500
     11 CAA          3.7550    -0.3970     0.3850 ca         1 56D      -0.153000
     12 CAF          3.1370     0.5710     1.1630 ca         1 56D      -0.140500
     13 CAE          1.8170     0.9270     0.9120 ca         1 56D      -0.119000
     14 H2          -0.5580     1.6190     0.2420 hc         1 56D       0.089700
     15 H3          -0.4840     0.2390    -2.4850 hc         1 56D       0.029033
     16 H4          -1.6460     1.4450    -1.9380 hc         1 56D       0.029033
     17 H5           0.0460     1.8870    -2.1470 hc         1 56D       0.029033
     18 H6           1.1920    -1.1280    -1.6990 ha         1 56D       0.131000
     19 H7           3.5170    -1.7580    -1.2570 ha         1 56D       0.112500
     20 H8           4.7830    -0.6770     0.5750 ha         1 56D       0.110000
     21 H9           3.6810     1.0530     1.9660 ha         1 56D       0.112500
     22 H10          1.3440     1.6870     1.5240 ha         1 56D       0.131000
@<TRIPOS>BOND
     1     1     2 1   
     2     2     3 1   
     3     2     4 1   
     4     4     5 2   
     5     4     6 1   
     6     6     7 1   
     7     6     8 1   
     8     6    14 1   
     9     7    15 1   
    10     7    16 1   
    11     7    17 1   
    12     8     9 ar  
    13     8    13 ar  
    14     9    10 ar  
    15     9    18 1   
    16    10    11 ar  
    17    10    19 1   
    18    11    12 ar  
    19    11    20 1   
    20    12    13 ar  
    21    12    21 1   
    22    13    22 1   
@<TRIPOS>SUBSTRUCTURE
     1 56D         1 TEMP              0 ****  ****    0 ROOT
