@<TRIPOS>MOLECULE
56D
   22    22     1     0     0
SMALL
No Charge or Current Charge


@<TRIPOS>ATOM
      1 OAL         -3.6780    -0.2960     0.7480 o          1 56D      -0.695000
      2 CAI         -2.5240     0.0990     0.9020 c          1 56D       0.650000
      3 OAM         -2.1830     0.8220     1.8360 o          1 56D      -0.695000
      4 CAH         -1.4020    -0.3670    -0.1670 c          1 56D       0.434100
      5 OAK         -1.3450    -1.5260    -0.5930 o          1 56D      -0.550100
      6 CAG         -0.3930     0.7090    -0.6370 c3         1 56D      -0.146400
      7 CAJ         -0.5420     1.0020    -2.1510 c3         1 56D      -0.064100
      8 CAD          1.0360     0.3370    -0.2280 ca         1 56D      -0.033300
      9 CAC          1.7760    -0.6310    -0.9410 ca         1 56D      -0.101000
     10 CAB          3.0850    -0.9600    -0.5480 ca         1 56D      -0.122500
     11 CAA          3.6660    -0.3290     0.5630 ca         1 56D      -0.135000
     12 CAF          2.9360     0.6300     1.2830 ca         1 56D      -0.122500
     13 CAE          1.6280     0.9600     0.8900 ca         1 56D      -0.101000
     14 H2          -0.6650     1.6400    -0.1260 hc         1 56D       0.089700
     15 H3          -0.3750     0.1020    -2.7540 hc         1 56D       0.029033
     16 H4          -1.5510     1.3710    -2.3700 hc         1 56D       0.029033
     17 H5           0.1760     1.7680    -2.4670 hc         1 56D       0.029033
     18 H6           1.3380    -1.1370    -1.7970 ha         1 56D       0.113000
     19 H7           3.6470    -1.7080    -1.1040 ha         1 56D       0.094500
     20 H8           4.6790    -0.5850     0.8680 ha         1 56D       0.092000
     21 H9           3.3840     1.1180     2.1460 ha         1 56D       0.094500
     22 H10          1.0730     1.7040     1.4590 ha         1 56D       0.113000
@<TRIPOS>BOND
     1     1     2 1   
     2     2     3 1   
     3     2     4 1   
     4     4     5 2   
     5     4     6 1   
     6     6     7 1   
     7     6     8 1   
     8     6    14 1   
     9     7    15 1   
    10     7    16 1   
    11     7    17 1   
    12     8     9 ar  
    13     8    13 ar  
    14     9    10 ar  
    15     9    18 1   
    16    10    11 ar  
    17    10    19 1   
    18    11    12 ar  
    19    11    20 1   
    20    12    13 ar  
    21    12    21 1   
    22    13    22 1   
@<TRIPOS>SUBSTRUCTURE
     1 56D         1 TEMP              0 ****  ****    0 ROOT
