@<TRIPOS>MOLECULE
56E
   28    28     1     0     0
SMALL
abcg2


@<TRIPOS>ATOM
      1 C1          -0.5190     0.9710     0.1150 c          1 56E       0.635700
      2 C4           1.8980     0.7830     0.0420 c3         1 56E       0.044000
      3 C7          -4.1550     0.2130    -0.0450 cc         1 56E      -0.210300
      4 C8          -1.8270     0.2760     0.0380 cd         1 56E      -0.165600
      5 C9          -3.0530     1.0060     0.0130 cd         1 56E      -0.089000
      6 C11          2.9350    -0.3030    -0.1030 c          1 56E       0.585100
      7 C14          5.2680    -0.7080    -0.1260 c3         1 56E       0.168600
      8 C15          6.5290     0.1020     0.0450 c3         1 56E      -0.098100
      9 O11         -0.4590     2.1790     0.3080 o          1 56E      -0.606100
     10 C12         -2.0340    -1.0740     0.0050 cc         1 56E      -0.221000
     11 S11         -3.6960    -1.4520    -0.0610 ss         1 56E       0.217000
     12 N7           0.5810     0.2170    -0.0390 ns         1 56E      -0.502900
     13 O13          2.6780    -1.4690    -0.2750 o          1 56E      -0.501000
     14 O12          4.1500     0.1950    -0.0180 os         1 56E      -0.443100
     15 H1           2.0540     1.2920     0.9980 h1         1 56E       0.083200
     16 H2           2.0640     1.5320    -0.7390 h1         1 56E       0.083200
     17 H3          -3.1070     2.0860     0.0350 ha         1 56E       0.154000
     18 H4          -6.1550     0.2010     0.7410 hc         1 56E       0.048033
     19 H5          -5.6670     1.7030    -0.0400 hc         1 56E       0.048033
     20 H6          -6.0710     0.2910    -1.0140 hc         1 56E       0.048033
     21 H7           5.2440    -1.1990    -1.1000 h1         1 56E       0.050700
     22 H8           5.1880    -1.4770     0.6450 h1         1 56E       0.050700
     23 H9           6.5630     0.5880     1.0200 hc         1 56E       0.049700
     24 H10          7.3890    -0.5620    -0.0280 hc         1 56E       0.049700
     25 H11          6.6270     0.8620    -0.7290 hc         1 56E       0.049700
     26 H12         -1.3100    -1.8750     0.0310 h4         1 56E       0.153000
     27 H13          0.5120    -0.7700    -0.2320 hn         1 56E       0.339500
     28 C10         -5.5890     0.6180    -0.0920 c3         1 56E      -0.020800
@<TRIPOS>BOND
     1     1     4 1   
     2     1     9 2   
     3     1    12 1   
     4     2     6 1   
     5     2    12 1   
     6     2    15 1   
     7     2    16 1   
     8     3     5 2   
     9     3    11 1   
    10     3    28 1   
    11     4     5 1   
    12     4    10 2   
    13     5    17 1   
    14     6    13 2   
    15     6    14 1   
    16     7     8 1   
    17     7    14 1   
    18     7    21 1   
    19     7    22 1   
    20     8    23 1   
    21     8    24 1   
    22     8    25 1   
    23    10    11 1   
    24    10    26 1   
    25    12    27 1   
    26    18    28 1   
    27    19    28 1   
    28    20    28 1   
@<TRIPOS>SUBSTRUCTURE
     1 56E         1 TEMP              0 ****  ****    0 ROOT
