@<TRIPOS>MOLECULE
56E
   28    28     1     0     0
SMALL
No Charge or Current Charge


@<TRIPOS>ATOM
      1 C1          -0.5790     1.1530     0.0700 c          1 56E       0.635700
      2 C4           1.9310     0.8450     0.0610 c3         1 56E       0.044000
      3 C7          -4.2150     0.1750    -0.0600 cc         1 56E      -0.210300
      4 C8          -1.8750     0.4140    -0.0160 cd         1 56E      -0.165600
      5 C9          -3.1550     1.0410     0.0360 cd         1 56E      -0.089000
      6 C11          2.9600    -0.3000    -0.0460 c          1 56E       0.585100
      7 C14          5.3200    -0.7790    -0.0750 c3         1 56E       0.168600
      8 C15          6.6390     0.0050     0.0150 c3         1 56E      -0.098100
      9 O11         -0.4950     2.3670     0.1920 o          1 56E      -0.606100
     10 C12         -1.9760    -0.9590    -0.1540 cc         1 56E      -0.221000
     11 S11         -3.6550    -1.4840    -0.2220 ss         1 56E       0.217000
     12 N7           0.5360     0.3520    -0.0010 ns         1 56E      -0.502900
     13 O13          2.6640    -1.4840    -0.1670 o          1 56E      -0.501000
     14 O12          4.2460     0.1730     0.0120 os         1 56E      -0.443100
     15 H1           2.1000     1.3680     1.0100 h1         1 56E       0.083200
     16 H2           2.1160     1.5470    -0.7620 h1         1 56E       0.083200
     17 H3          -3.2800     2.1150     0.1420 ha         1 56E       0.154000
     18 H4          -6.1830     0.0060     0.7980 hc         1 56E       0.048033
     19 H5          -5.8470     1.5840     0.0630 hc         1 56E       0.048033
     20 H6          -6.1690     0.1780    -0.9680 hc         1 56E       0.048033
     21 H7           5.2830    -1.3270    -1.0260 h1         1 56E       0.050700
     22 H8           5.2690    -1.5050     0.7480 h1         1 56E       0.050700
     23 H9           6.7010     0.5480     0.9650 hc         1 56E       0.049700
     24 H10          7.4920    -0.6800    -0.0470 hc         1 56E       0.049700
     25 H11          6.7160     0.7260    -0.8080 hc         1 56E       0.049700
     26 H12         -1.2020    -1.7130    -0.2230 h4         1 56E       0.153000
     27 H13          0.3770    -0.6430    -0.1020 hn         1 56E       0.339500
     28 C10         -5.6830     0.5040    -0.0400 c3         1 56E      -0.020800
@<TRIPOS>BOND
     1     1     4 1   
     2     1     9 2   
     3     1    12 1   
     4     2     6 1   
     5     2    12 1   
     6     2    15 1   
     7     2    16 1   
     8     3     5 2   
     9     3    11 1   
    10     3    28 1   
    11     4     5 1   
    12     4    10 2   
    13     5    17 1   
    14     6    13 2   
    15     6    14 1   
    16     7     8 1   
    17     7    14 1   
    18     7    21 1   
    19     7    22 1   
    20     8    23 1   
    21     8    24 1   
    22     8    25 1   
    23    10    11 1   
    24    10    26 1   
    25    12    27 1   
    26    18    28 1   
    27    19    28 1   
    28    20    28 1   
@<TRIPOS>SUBSTRUCTURE
     1 56E         1 TEMP              0 ****  ****    0 ROOT
