@<TRIPOS>MOLECULE
56F
   23    23     1     0     0
SMALL
bcc


@<TRIPOS>ATOM
      1 N2           3.8070     0.2100     0.1460 n7         1 56F      -0.814100
      2 C6          -0.8450    -1.2730     0.3070 ca         1 56F      -0.096000
      3 C7          -2.1830    -1.2590    -0.0560 ca         1 56F      -0.119500
      4 C9          -2.2790     1.1010     0.4470 ca         1 56F      -0.119500
      5 C10         -0.9410     1.0710     0.8060 ca         1 56F      -0.096000
      6 C8          -2.8880    -0.0680     0.0160 ca         1 56F       0.037400
      7 C5          -0.2140    -0.1140     0.7480 ca         1 56F      -0.077300
      8 C4           1.2340    -0.1340     1.1190 c3         1 56F      -0.171300
      9 S3           2.2360     0.2470    -0.3310 s6         1 56F       1.205900
     10 OS1          1.9430     1.6180    -0.7210 o          1 56F      -0.590300
     11 OS2          2.0520    -0.8270    -1.2950 o          1 56F      -0.590300
     12 C1           4.4180    -1.0640     0.5020 c3         1 56F       0.183100
     13 H1           4.0350     0.9770     0.7690 hn         1 56F       0.425800
     14 H2          -0.2950    -2.2040     0.2590 ha         1 56F       0.142500
     15 H3          -2.6670    -2.1670    -0.3900 ha         1 56F       0.151000
     16 H4          -2.8380     2.0250     0.5010 ha         1 56F       0.151000
     17 H5          -0.4680     1.9820     1.1480 ha         1 56F       0.142500
     18 H6           1.4770     0.6160     1.8720 h1         1 56F       0.093200
     19 H7           1.5480    -1.1130     1.4830 h1         1 56F       0.093200
     20 H8           5.4730    -0.8810     0.6850 h1         1 56F       0.052367
     21 H9           3.9920    -1.5240     1.3970 h1         1 56F       0.052367
     22 H10          4.3360    -1.7590    -0.3280 h1         1 56F       0.052367
     23 CL          -4.5610    -0.0400    -0.4340 cl         1 56F      -0.107400
@<TRIPOS>BOND
     1     1     9 1   
     2     1    12 1   
     3     1    13 1   
     4     2     3 ar  
     5     2     7 ar  
     6     2    14 1   
     7     3     6 ar  
     8     3    15 1   
     9     4     5 ar  
    10     4     6 ar  
    11     4    16 1   
    12     5     7 ar  
    13     5    17 1   
    14     6    23 1   
    15     7     8 1   
    16     8     9 1   
    17     8    18 1   
    18     8    19 1   
    19     9    10 2   
    20     9    11 2   
    21    12    20 1   
    22    12    21 1   
    23    12    22 1   
@<TRIPOS>SUBSTRUCTURE
     1 56F         1 TEMP              0 ****  ****    0 ROOT
