@<TRIPOS>MOLECULE
56F
   23    23     1     0     0
SMALL
No Charge or Current Charge


@<TRIPOS>ATOM
      1 N2           3.8740     0.2330     0.1280 n7         1 56F      -0.869300
      2 C6          -0.8530    -1.2760     0.2320 ca         1 56F      -0.078000
      3 C7          -2.2340    -1.2620    -0.0330 ca         1 56F      -0.101500
      4 C9          -2.3240     1.0980     0.5500 ca         1 56F      -0.101500
      5 C10         -0.9420     1.0860     0.8150 ca         1 56F      -0.078000
      6 C8          -2.9670    -0.0760     0.1260 ca         1 56F       0.129000
      7 C5          -0.2010    -0.1010     0.6550 ca         1 56F      -0.077300
      8 C4           1.2950    -0.1160     0.9430 c3         1 56F      -0.282100
      9 S3           2.3230     0.2580    -0.4920 s6         1 56F       1.175100
     10 OS1          2.0950     1.6380    -0.9270 o          1 56F      -0.519500
     11 OS2          2.2470    -0.8390    -1.4610 o          1 56F      -0.519500
     12 C1           4.4320    -1.0460     0.6130 c3         1 56F       0.183100
     13 H1           3.7830     0.8710     0.9180 hn         1 56F       0.481000
     14 H2          -0.2900    -2.1990     0.1060 ha         1 56F       0.124500
     15 H3          -2.7350    -2.1700    -0.3610 ha         1 56F       0.133000
     16 H4          -2.8940     2.0160     0.6720 ha         1 56F       0.133000
     17 H5          -0.4500     1.9990     1.1420 ha         1 56F       0.124500
     18 H6           1.5430     0.6280     1.7080 h1         1 56F       0.093200
     19 H7           1.6000    -1.1060     1.2970 h1         1 56F       0.093200
     20 H8           5.4470    -0.8980     1.0060 h1         1 56F       0.052367
     21 H9           3.8230    -1.4770     1.4180 h1         1 56F       0.052367
     22 H10          4.4950    -1.7820    -0.2000 h1         1 56F       0.052367
     23 Cl          -4.6950    -0.0590    -0.2050 cl         1 56F      -0.199000
@<TRIPOS>BOND
     1     1     9 1   
     2     1    12 1   
     3     1    13 1   
     4     2     3 ar  
     5     2     7 ar  
     6     2    14 1   
     7     3     6 ar  
     8     3    15 1   
     9     4     5 ar  
    10     4     6 ar  
    11     4    16 1   
    12     5     7 ar  
    13     5    17 1   
    14     6    23 1   
    15     7     8 1   
    16     8     9 1   
    17     8    18 1   
    18     8    19 1   
    19     9    10 2   
    20     9    11 2   
    21    12    20 1   
    22    12    21 1   
    23    12    22 1   
@<TRIPOS>SUBSTRUCTURE
     1 56F         1 TEMP              0 ****  ****    0 ROOT
