@<TRIPOS>MOLECULE
56G
   58    61     1     0     0
SMALL
abcg2


@<TRIPOS>ATOM
      1 C4           1.9600    -1.1300    -0.1140 ca         1 56G       0.442900
      2 C5           1.9420     0.2770    -0.1450 ca         1 56G      -0.367000
      3 C6           0.7690     0.8930     0.2640 ca         1 56G       0.434900
      4 N1          -0.3100     0.1930     0.6590 nb         1 56G      -0.347000
      5 N3           0.8740    -1.8180     0.2720 nb         1 56G      -0.303000
      6 CAN          4.2690    -1.2720    -0.9770 c6         1 56G       0.222300
      7 CAL          5.4840    -1.9490    -0.3650 c6         1 56G       0.146800
      8 NBE          5.4430    -3.3810    -0.5710 n3         1 56G      -0.714600
      9 CAC          6.6290    -4.0280    -0.0600 c3         1 56G       0.152100
     10 CAM          4.2370    -3.9320     0.0110 c6         1 56G       0.146800
     11 CAO          3.0020    -3.2980    -0.5990 c6         1 56G       0.222300
     12 NBF          3.0480    -1.8530    -0.4570 nh         1 56G      -0.778300
     13 NAT          0.5790     2.2390     0.3080 nu         1 56G      -0.892800
     14 CBA          1.4450     3.2740     0.0100 cc         1 56G       0.520900
     15 CAI          1.1200     4.6400     0.1410 cc         1 56G      -0.270000
     16 CAX          2.2600     5.3030    -0.2590 cd         1 56G      -0.107300
     17 CAB          2.5740     6.7550    -0.3230 c3         1 56G      -0.034800
     18 NAU          3.1440     4.3490    -0.5880 na         1 56G      -0.009200
     19 NAP          2.6740     3.1050    -0.4350 nd         1 56G      -0.566800
     20 C2          -0.1710    -1.1080     0.6250 ca         1 56G       0.423300
     21 OAV         -1.2180    -1.8690     1.0060 os         1 56G      -0.356400
     22 CAZ         -2.4220    -1.2630     1.2830 ca         1 56G       0.152100
     23 CAH         -3.2610    -0.9450     0.2270 ca         1 56G      -0.134000
     24 CAG         -2.7830    -1.0580     2.6020 ca         1 56G      -0.133000
     25 CAE         -4.0350    -0.5170     2.8610 ca         1 56G      -0.077000
     26 CAF         -4.8920    -0.1840     1.8280 ca         1 56G      -0.175000
     27 CAY         -4.5130    -0.3960     0.4980 ca         1 56G      -0.010000
     28 NAS         -5.4370    -0.0350    -0.4830 ns         1 56G      -0.143000
     29 CAW         -5.3370    -0.1240    -1.8360 c          1 56G       0.607300
     30 OAD         -4.3620    -0.5660    -2.4210 o          1 56G      -0.577100
     31 CAK         -6.5430     0.3730    -2.5430 ce         1 56G      -0.306200
     32 CAA         -6.6170     0.3720    -3.8690 c2         1 56G      -0.224000
     33 H1           2.7770     0.8690    -0.4690 ha         1 56G       0.159000
     34 H2           4.3260    -0.2110    -0.7520 h1         1 56G       0.063450
     35 H3           4.2960    -1.3790    -2.0680 h1         1 56G       0.063450
     36 H4           6.3800    -1.5420    -0.8390 h1         1 56G       0.040450
     37 H5           5.5370    -1.6900     0.7070 h1         1 56G       0.040450
     38 H7           6.7580    -3.9030     1.0260 h1         1 56G       0.031033
     39 H8           6.5880    -5.0980    -0.2680 h1         1 56G       0.031033
     40 H9           7.5160    -3.6240    -0.5500 h1         1 56G       0.031033
     41 H10          4.2070    -5.0080    -0.1770 h1         1 56G       0.040450
     42 H11          4.2110    -3.7950     1.1070 h1         1 56G       0.040450
     43 H12          2.9460    -3.5550    -1.6640 h1         1 56G       0.063450
     44 H13          2.1110    -3.6840    -0.1170 h1         1 56G       0.063450
     45 H14         -0.3350     2.5170     0.6300 hn         1 56G       0.516000
     46 H15          0.1930     5.0720     0.4800 ha         1 56G       0.148000
     47 H16          3.0490     7.0960     0.5980 hc         1 56G       0.053367
     48 H17          3.2490     6.9830    -1.1470 hc         1 56G       0.053367
     49 H18          1.6640     7.3350    -0.4610 hc         1 56G       0.053367
     50 H19          4.0830     4.4820    -0.9270 hn         1 56G       0.371000
     51 H20         -2.9370    -1.1310    -0.7840 ha         1 56G       0.162000
     52 H21         -2.1090    -1.3210     3.4070 ha         1 56G       0.130000
     53 H22         -4.3470    -0.3490     3.8830 ha         1 56G       0.114000
     54 H23         -5.8630     0.2380     2.0530 ha         1 56G       0.108000
     55 H24         -6.2980     0.3520    -0.1270 hn         1 56G       0.149000
     56 H25         -7.3730     0.7410    -1.9500 ha         1 56G       0.176000
     57 H27         -5.8050     0.0120    -4.4870 ha         1 56G       0.178000
     58 H28         -7.4990     0.7360    -4.3780 ha         1 56G       0.178000
@<TRIPOS>BOND
     1     1     2 ar  
     2     1     5 ar  
     3     1    12 1   
     4     2     3 ar  
     5     2    33 1   
     6     3     4 ar  
     7     3    13 1   
     8     4    20 ar  
     9     5    20 ar  
    10     6     7 1   
    11     6    12 1   
    12     6    34 1   
    13     6    35 1   
    14     7     8 1   
    15     7    36 1   
    16     7    37 1   
    17     8     9 1   
    18     8    10 1   
    19     9    38 1   
    20     9    39 1   
    21     9    40 1   
    22    10    11 1   
    23    10    41 1   
    24    10    42 1   
    25    11    12 1   
    26    11    43 1   
    27    11    44 1   
    28    13    14 1   
    29    13    45 1   
    30    14    15 1   
    31    14    19 2   
    32    15    16 2   
    33    15    46 1   
    34    16    17 1   
    35    16    18 1   
    36    17    47 1   
    37    17    48 1   
    38    17    49 1   
    39    18    19 1   
    40    18    50 1   
    41    20    21 1   
    42    21    22 1   
    43    22    23 ar  
    44    22    24 ar  
    45    23    27 ar  
    46    23    51 1   
    47    24    25 ar  
    48    24    52 1   
    49    25    26 ar  
    50    25    53 1   
    51    26    27 ar  
    52    26    54 1   
    53    27    28 1   
    54    28    29 1   
    55    28    55 1   
    56    29    30 2   
    57    29    31 1   
    58    31    32 2   
    59    31    56 1   
    60    32    57 1   
    61    32    58 1   
@<TRIPOS>SUBSTRUCTURE
     1 56G         1 TEMP              0 ****  ****    0 ROOT
