@<TRIPOS>MOLECULE
56G
   58    61     1     0     0
SMALL
No Charge or Current Charge


@<TRIPOS>ATOM
      1 C4           1.9480    -1.0260     0.3570 ca         1 56G       0.442900
      2 C5           1.9100     0.3440     0.0800 ca         1 56G      -0.367000
      3 C6           0.8040     1.0600     0.5300 ca         1 56G       0.434900
      4 N1          -0.2020     0.4680     1.1740 nb         1 56G      -0.347000
      5 N3           0.9440    -1.6230     1.0170 nb         1 56G      -0.303000
      6 CAN          4.3020    -1.2650    -0.5790 c6         1 56G       0.222300
      7 CAL          5.5250    -2.2300    -0.4490 c6         1 56G       0.146800
      8 NBE          5.2620    -3.5870    -1.0130 n3         1 56G      -0.714600
      9 CAC          6.4410    -4.4760    -0.9350 c3         1 56G       0.152100
     10 CAM          4.0540    -4.1730    -0.3590 c6         1 56G       0.146800
     11 CAO          2.7890    -3.2650    -0.4890 c6         1 56G       0.222300
     12 NBF          3.0290    -1.8500    -0.0370 nh         1 56G      -0.778300
     13 NAT          0.6180     2.4090     0.3130 nu         1 56G      -0.892800
     14 CBA          1.4290     3.4500    -0.0140 cc         1 56G       0.520900
     15 CAI          0.8990     4.7240    -0.2050 cc         1 56G      -0.270000
     16 CAX          1.9490     5.5390    -0.4960 cd         1 56G      -0.107300
     17 CAB          1.9880     7.0130    -0.7970 c3         1 56G      -0.034800
     18 NAU          3.0690     4.6940    -0.4570 na         1 56G      -0.009200
     19 NAP          2.7280     3.3720    -0.1460 nd         1 56G      -0.566800
     20 C2          -0.0970    -0.8580     1.3900 ca         1 56G       0.423300
     21 OAV         -1.1060    -1.4950     2.0760 os         1 56G      -0.356400
     22 CAZ         -2.4240    -1.1050     2.0020 ca         1 56G       0.152100
     23 CAH         -3.0260    -0.8200     0.7610 ca         1 56G      -0.134000
     24 CAG         -3.1770    -1.0350     3.1830 ca         1 56G      -0.133000
     25 CAE         -4.5270    -0.6570     3.1320 ca         1 56G      -0.077000
     26 CAF         -5.1240    -0.3570     1.8960 ca         1 56G      -0.175000
     27 CAY         -4.3850    -0.4370     0.7000 ca         1 56G      -0.010000
     28 NAS         -5.0630    -0.1260    -0.5120 ns         1 56G      -0.143000
     29 CAW         -4.6510    -0.1050    -1.8370 c          1 56G       0.607300
     30 OAD         -3.5190    -0.3810    -2.2180 o          1 56G      -0.577100
     31 CAK         -5.7290     0.2920    -2.7950 ce         1 56G      -0.306200
     32 CAA         -5.5670     0.3840    -4.1390 c2         1 56G      -0.224000
     33 H1           2.6960     0.8310    -0.4780 ha         1 56G       0.159000
     34 H2           4.5590    -0.3390    -0.0450 h1         1 56G       0.063450
     35 H3           4.1700    -1.0060    -1.6400 h1         1 56G       0.063450
     36 H4           6.3860    -1.7690    -0.9540 h1         1 56G       0.040450
     37 H5           5.7880    -2.3120     0.6160 h1         1 56G       0.040450
     38 H7           6.7330    -4.6490     0.1100 h1         1 56G       0.031033
     39 H8           6.2240    -5.4480    -1.3970 h1         1 56G       0.031033
     40 H9           7.2950    -4.0330    -1.4630 h1         1 56G       0.031033
     41 H10          3.8230    -5.1550    -0.7960 h1         1 56G       0.040450
     42 H11          4.2510    -4.3390     0.7110 h1         1 56G       0.040450
     43 H12          2.4690    -3.2650    -1.5420 h1         1 56G       0.063450
     44 H13          1.9830    -3.7410     0.0890 h1         1 56G       0.063450
     45 H14         -0.3200     2.7180     0.5440 hn         1 56G       0.516000
     46 H15         -0.1480     4.9950    -0.1330 ha         1 56G       0.148000
     47 H16          2.6020     7.5500    -0.0640 hc         1 56G       0.053367
     48 H17          2.4070     7.2020    -1.7920 hc         1 56G       0.053367
     49 H18          0.9820     7.4490    -0.7710 hc         1 56G       0.053367
     50 H19          4.0360     4.9710    -0.6250 hn         1 56G       0.371000
     51 H20         -2.4250    -0.9050    -0.1360 ha         1 56G       0.162000
     52 H21         -2.7110    -1.2700     4.1370 ha         1 56G       0.130000
     53 H22         -5.1110    -0.5960     4.0490 ha         1 56G       0.114000
     54 H23         -6.1720    -0.0650     1.8690 ha         1 56G       0.108000
     55 H24         -6.0330     0.1290    -0.3790 hn         1 56G       0.149000
     56 H25         -6.6980     0.5160    -2.3480 ha         1 56G       0.176000
     57 H27         -4.6130     0.1680    -4.6240 ha         1 56G       0.178000
     58 H28         -6.3860     0.6790    -4.7970 ha         1 56G       0.178000
@<TRIPOS>BOND
     1     1     2 ar  
     2     1     5 ar  
     3     1    12 1   
     4     2     3 ar  
     5     2    33 1   
     6     3     4 ar  
     7     3    13 1   
     8     4    20 ar  
     9     5    20 ar  
    10     6     7 1   
    11     6    12 1   
    12     6    34 1   
    13     6    35 1   
    14     7     8 1   
    15     7    36 1   
    16     7    37 1   
    17     8     9 1   
    18     8    10 1   
    19     9    38 1   
    20     9    39 1   
    21     9    40 1   
    22    10    11 1   
    23    10    41 1   
    24    10    42 1   
    25    11    12 1   
    26    11    43 1   
    27    11    44 1   
    28    13    14 1   
    29    13    45 1   
    30    14    15 1   
    31    14    19 2   
    32    15    16 2   
    33    15    46 1   
    34    16    17 1   
    35    16    18 1   
    36    17    47 1   
    37    17    48 1   
    38    17    49 1   
    39    18    19 1   
    40    18    50 1   
    41    20    21 1   
    42    21    22 1   
    43    22    23 ar  
    44    22    24 ar  
    45    23    27 ar  
    46    23    51 1   
    47    24    25 ar  
    48    24    52 1   
    49    25    26 ar  
    50    25    53 1   
    51    26    27 ar  
    52    26    54 1   
    53    27    28 1   
    54    28    29 1   
    55    28    55 1   
    56    29    30 2   
    57    29    31 1   
    58    31    32 2   
    59    31    56 1   
    60    32    57 1   
    61    32    58 1   
@<TRIPOS>SUBSTRUCTURE
     1 56G         1 TEMP              0 ****  ****    0 ROOT
