@<TRIPOS>MOLECULE
56I
   30    30     1     0     0
SMALL
No Charge or Current Charge


@<TRIPOS>ATOM
      1 O1         -15.8170   -35.7470    94.9320 o          1 56I      -0.706867
      2 C1         -12.4760   -31.6690    96.5130 c6         1 56I       0.128300
      3 C2         -13.6360   -31.1960    97.4310 c6         1 56I       0.144300
      4 C3         -15.0020   -31.8380    97.0070 c6         1 56I      -0.098700
      5 C4         -15.0400   -32.3370    95.5150 c6         1 56I       0.236500
      6 C5         -14.1860   -31.4350    94.5640 c6         1 56I      -0.069400
      7 S15        -15.0870   -34.7230    94.1860 s6         1 56I       1.344700
      8 O18        -15.9200   -33.8630    93.3430 o          1 56I      -0.706867
      9 N10        -14.6390   -33.7610    95.4480 n7         1 56I      -0.870300
     10 O11        -13.3300   -31.5030    98.8060 oh         1 56I      -0.743000
     11 O12        -11.2190   -31.1800    97.0190 oh         1 56I      -0.683000
     12 C7         -12.7390   -31.1430    95.0680 c6         1 56I       0.201300
     13 O13        -11.7440   -31.6450    94.1660 oh         1 56I      -0.682000
     14 H1         -12.4670   -32.7700    96.5010 h1         1 56I       0.083700
     15 H2         -13.7090   -30.1040    97.3090 h1         1 56I       0.045700
     16 H3         -15.1690   -32.7180    97.6440 hc         1 56I       0.065700
     17 H4         -16.0900   -32.2700    95.1930 h1         1 56I       0.054700
     18 H5         -14.7040   -30.4750    94.4450 hc         1 56I       0.067200
     19 H6         -14.1560   -31.8610    93.5530 hc         1 56I       0.067200
     20 H7         -15.1760   -34.2830    96.1330 hn         1 56I       0.425000
     21 H10        -16.9740   -29.1690    96.8670 ho         1 56I       0.431000
     22 H11        -14.0240   -31.0740    99.3580 ho         1 56I       0.496000
     23 H12        -11.3500   -31.1780    97.9960 ho         1 56I       0.449000
     24 H13        -12.6400   -30.0480    95.1050 h1         1 56I       0.008700
     25 H14        -10.9060   -31.6180    94.6840 ho         1 56I       0.489000
     26 O19        -13.7990   -35.1330    93.6240 o          1 56I      -0.706867
     27 C8         -16.2020   -30.9040    97.3460 c3         1 56I       0.159600
     28 O9         -16.1870   -29.6890    96.5900 oh         1 56I      -0.661000
     29 H8         -16.1770   -30.6760    98.4200 h1         1 56I       0.015200
     30 H9         -17.1330   -31.4520    97.1520 h1         1 56I       0.015200
@<TRIPOS>BOND
     1     1     7 1   
     2     2     3 1   
     3     2    11 1   
     4     2    12 1   
     5     2    14 1   
     6     3     4 1   
     7     3    10 1   
     8     3    15 1   
     9     4     5 1   
    10     4    16 1   
    11     4    27 1   
    12     5     6 1   
    13     5     9 1   
    14     5    17 1   
    15     6    12 1   
    16     6    18 1   
    17     6    19 1   
    18     7     8 1   
    19     7     9 1   
    20     7    26 1   
    21     9    20 1   
    22    10    22 1   
    23    11    23 1   
    24    12    13 1   
    25    12    24 1   
    26    13    25 1   
    27    21    28 1   
    28    27    28 1   
    29    27    29 1   
    30    27    30 1   
@<TRIPOS>SUBSTRUCTURE
     1 56I         1 TEMP              0 ****  ****    0 ROOT
