@<TRIPOS>MOLECULE
56I
   30    30     1     0     0
SMALL
abcg2


@<TRIPOS>ATOM
      1 O1         -14.9540   -35.9730    94.5400 o          1 56I      -0.706867
      2 C1         -12.5240   -31.6710    96.6530 c6         1 56I       0.128300
      3 C2         -13.7210   -31.0710    97.3780 c6         1 56I       0.144300
      4 C3         -15.0050   -31.8130    96.9720 c6         1 56I      -0.098700
      5 C4         -14.9990   -32.2630    95.4880 c6         1 56I       0.236500
      6 C5         -14.0610   -31.3880    94.6620 c6         1 56I      -0.069400
      7 S15        -15.2260   -34.5950    94.1050 s6         1 56I       1.344700
      8 O18        -16.6640   -34.3010    93.9570 o          1 56I      -0.706867
      9 N10        -14.6280   -33.6820    95.4100 n7         1 56I      -0.870300
     10 O11        -13.4890   -31.1850    98.7690 oh         1 56I      -0.743000
     11 O12        -11.3000   -31.1580    97.1290 oh         1 56I      -0.683000
     12 C7         -12.6160   -31.3330    95.1670 c6         1 56I       0.201300
     13 O13        -11.7970   -32.1750    94.3830 oh         1 56I      -0.682000
     14 H1         -12.5560   -32.7650    96.7690 h1         1 56I       0.083700
     15 H2         -13.7960   -30.0110    97.0960 h1         1 56I       0.045700
     16 H3         -15.0420   -32.7100    97.6010 hc         1 56I       0.065700
     17 H4         -16.0130   -32.1220    95.0950 h1         1 56I       0.054700
     18 H5         -14.4720   -30.3770    94.6780 hc         1 56I       0.067200
     19 H6         -14.0680   -31.7020    93.6180 hc         1 56I       0.067200
     20 H7         -14.9000   -34.1690    96.2570 hn         1 56I       0.425000
     21 H10        -17.0980   -29.3580    96.7880 ho         1 56I       0.431000
     22 H11        -13.9570   -30.4800    99.2250 ho         1 56I       0.496000
     23 H12        -11.2660   -31.3170    98.0790 ho         1 56I       0.449000
     24 H13        -12.2750   -30.2910    95.0680 h1         1 56I       0.008700
     25 H14        -10.8880   -32.0630    94.6780 ho         1 56I       0.489000
     26 O19        -14.4440   -34.1730    92.9340 o          1 56I      -0.706867
     27 C8         -16.2550   -31.0230    97.3240 c3         1 56I       0.159600
     28 O9         -16.2940   -29.8340    96.5650 oh         1 56I      -0.661000
     29 H8         -16.2560   -30.8090    98.4020 h1         1 56I       0.015200
     30 H9         -17.1340   -31.6520    97.1280 h1         1 56I       0.015200
@<TRIPOS>BOND
     1     1     7 1   
     2     2     3 1   
     3     2    11 1   
     4     2    12 1   
     5     2    14 1   
     6     3     4 1   
     7     3    10 1   
     8     3    15 1   
     9     4     5 1   
    10     4    16 1   
    11     4    27 1   
    12     5     6 1   
    13     5     9 1   
    14     5    17 1   
    15     6    12 1   
    16     6    18 1   
    17     6    19 1   
    18     7     8 1   
    19     7     9 1   
    20     7    26 1   
    21     9    20 1   
    22    10    22 1   
    23    11    23 1   
    24    12    13 1   
    25    12    24 1   
    26    13    25 1   
    27    21    28 1   
    28    27    28 1   
    29    27    29 1   
    30    27    30 1   
@<TRIPOS>SUBSTRUCTURE
     1 56I         1 TEMP              0 ****  ****    0 ROOT
