@<TRIPOS>MOLECULE
56J
   31    33     1     0     0
SMALL
No Charge or Current Charge


@<TRIPOS>ATOM
      1 C01          2.6560     2.7630    -0.0640 ca         1 56J      -0.107500
      2 C02          3.5540     1.7620     0.3760 ca         1 56J      -0.111000
      3 C03          3.1420     0.4140     0.4500 ca         1 56J      -0.084500
      4 C04          1.8220     0.0850     0.0820 cp         1 56J      -0.038000
      5 C05          0.9490     1.0840    -0.3520 ca         1 56J      -0.084800
      6 C06          1.3370     2.4290    -0.4340 ca         1 56J      -0.097000
      7 C07         -0.4010     0.4130    -0.6560 c5         1 56J       0.027900
      8 C08         -0.1550    -1.0900    -0.4070 ca         1 56J      -0.084800
      9 C09         -0.9830    -2.2060    -0.6010 ca         1 56J      -0.097000
     10 C10         -0.4680    -3.4810    -0.2870 ca         1 56J      -0.107500
     11 C11          0.8530    -3.6230     0.1960 ca         1 56J      -0.111000
     12 C12          1.6800    -2.4930     0.3590 ca         1 56J      -0.084500
     13 C13          1.1610    -1.2190     0.0480 cp         1 56J      -0.038000
     14 C14         -1.5310     1.0300     0.2130 c3         1 56J      -0.052400
     15 C16         -4.0170     1.3280     0.6720 c          1 56J       0.573900
     16 O17         -4.4820     2.3650     0.2110 o          1 56J      -0.513100
     17 C29         -2.9590     0.4910    -0.0510 c3         1 56J      -0.206400
     18 H011         2.9860     3.7980    -0.1170 ha         1 56J       0.113500
     19 H021         4.5690     2.0320     0.6570 ha         1 56J       0.113500
     20 H031         3.8330    -0.3560     0.7840 ha         1 56J       0.117000
     21 H061         0.6410     3.1940    -0.7710 ha         1 56J       0.114000
     22 H071        -0.6770     0.5830    -1.7040 hc         1 56J       0.077700
     23 H091        -1.9910    -2.0990    -0.9920 ha         1 56J       0.114000
     24 H101        -1.0910    -4.3630    -0.4230 ha         1 56J       0.113500
     25 H111         1.2390    -4.6130     0.4310 ha         1 56J       0.113500
     26 H121         2.7020    -2.6030     0.7110 ha         1 56J       0.117000
     27 H142        -1.2910     0.8940     1.2750 hc         1 56J       0.050700
     28 H143        -1.5430     2.1140     0.0430 hc         1 56J       0.050700
     29 H1          -4.3460     0.9390     1.6610 h4         1 56J      -0.017800
     30 H292        -3.1620     0.5060    -1.1280 hc         1 56J       0.069700
     31 H33         -3.0130    -0.5270     0.3480 hc         1 56J       0.069700
@<TRIPOS>BOND
     1     1     2 ar  
     2     1     6 ar  
     3     1    18 1   
     4     2     3 ar  
     5     2    19 1   
     6     3     4 ar  
     7     3    20 1   
     8     4     5 ar  
     9     4    13 1   
    10     5     6 ar  
    11     5     7 1   
    12     6    21 1   
    13     7     8 1   
    14     7    14 1   
    15     7    22 1   
    16     8     9 ar  
    17     8    13 ar  
    18     9    10 ar  
    19     9    23 1   
    20    10    11 ar  
    21    10    24 1   
    22    11    12 ar  
    23    11    25 1   
    24    12    13 ar  
    25    12    26 1   
    26    14    17 1   
    27    14    27 1   
    28    14    28 1   
    29    15    16 2   
    30    15    17 1   
    31    15    29 1   
    32    17    30 1   
    33    17    31 1   
@<TRIPOS>SUBSTRUCTURE
     1 56J         1 TEMP              0 ****  ****    0 ROOT
