@<TRIPOS>MOLECULE
56J
   31    33     1     0     0
SMALL
abcg2


@<TRIPOS>ATOM
      1 C01          2.6150     2.7140    -0.0710 ca         1 56J      -0.107500
      2 C02          3.5050     1.7490     0.3950 ca         1 56J      -0.111000
      3 C03          3.1200     0.4180     0.4900 ca         1 56J      -0.084500
      4 C04          1.8310     0.0690     0.1100 cp         1 56J      -0.038000
      5 C05          0.9370     1.0360    -0.3580 ca         1 56J      -0.084800
      6 C06          1.3220     2.3620    -0.4480 ca         1 56J      -0.097000
      7 C07         -0.4020     0.4170    -0.6790 c5         1 56J       0.027900
      8 C08         -0.1380    -1.0480    -0.4180 ca         1 56J      -0.084800
      9 C09         -0.9590    -2.1460    -0.6190 ca         1 56J      -0.097000
     10 C10         -0.4870    -3.4150    -0.2910 ca         1 56J      -0.107500
     11 C11          0.7940    -3.5860     0.2220 ca         1 56J      -0.111000
     12 C12          1.6330    -2.4920     0.4020 ca         1 56J      -0.084500
     13 C13          1.1610    -1.2290     0.0740 cp         1 56J      -0.038000
     14 C14         -1.5010     1.0410     0.1960 c3         1 56J      -0.052400
     15 C16         -3.9260     1.2520     0.7250 c          1 56J       0.573900
     16 O17         -4.9230     1.8020     0.3280 o          1 56J      -0.513100
     17 C29         -2.9150     0.5680    -0.1400 c3         1 56J      -0.206400
     18 H011         2.9310     3.7460    -0.1400 ha         1 56J       0.113500
     19 H021         4.5050     2.0400     0.6860 ha         1 56J       0.113500
     20 H031         3.8190    -0.3280     0.8510 ha         1 56J       0.117000
     21 H061         0.6350     3.1200    -0.8070 ha         1 56J       0.114000
     22 H071        -0.6610     0.5810    -1.7320 hc         1 56J       0.077700
     23 H091        -1.9490    -2.0390    -1.0430 ha         1 56J       0.114000
     24 H101        -1.1220    -4.2780    -0.4450 ha         1 56J       0.113500
     25 H111         1.1460    -4.5790     0.4690 ha         1 56J       0.113500
     26 H121         2.6380    -2.6340     0.7810 ha         1 56J       0.117000
     27 H142        -1.2800     0.8420     1.2470 hc         1 56J       0.050700
     28 H143        -1.4520     2.1260     0.0660 hc         1 56J       0.050700
     29 H1          -3.7000     1.2130     1.8070 h4         1 56J      -0.017800
     30 H292        -3.1520     0.7290    -1.1930 hc         1 56J       0.069700
     31 H33         -3.0090    -0.5030     0.0680 hc         1 56J       0.069700
@<TRIPOS>BOND
     1     1     2 ar  
     2     1     6 ar  
     3     1    18 1   
     4     2     3 ar  
     5     2    19 1   
     6     3     4 ar  
     7     3    20 1   
     8     4     5 ar  
     9     4    13 1   
    10     5     6 ar  
    11     5     7 1   
    12     6    21 1   
    13     7     8 1   
    14     7    14 1   
    15     7    22 1   
    16     8     9 ar  
    17     8    13 ar  
    18     9    10 ar  
    19     9    23 1   
    20    10    11 ar  
    21    10    24 1   
    22    11    12 ar  
    23    11    25 1   
    24    12    13 ar  
    25    12    26 1   
    26    14    17 1   
    27    14    27 1   
    28    14    28 1   
    29    15    16 2   
    30    15    17 1   
    31    15    29 1   
    32    17    30 1   
    33    17    31 1   
@<TRIPOS>SUBSTRUCTURE
     1 56J         1 TEMP              0 ****  ****    0 ROOT
