@<TRIPOS>MOLECULE
56K
   23    24     1     0     0
SMALL
bcc


@<TRIPOS>ATOM
      1 C1           2.8620     1.6570     0.0580 ca         1 56K      -0.095000
      2 C2           1.4770     1.6210     0.0400 ca         1 56K      -0.161000
      3 C3           0.8220     0.3870     0.0290 ca         1 56K      -0.082500
      4 C4           1.5730    -0.7850     0.0390 ca         1 56K      -0.163000
      5 C5           2.9720    -0.7530     0.0610 ca         1 56K       0.145600
      6 C6           3.6110     0.4920     0.0680 ca         1 56K      -0.190000
      7 C8          -0.6460     0.3060     0.0070 cc         1 56K       0.416800
      8 N7           3.6990    -1.9220     0.1290 nv         1 56K      -0.824200
      9 C12         -1.5100     1.3620    -0.0460 cd         1 56K      -0.200400
     10 S11         -3.1230     0.7990    -0.0540 ss         1 56K      -0.186300
     11 C10         -2.5460    -0.8290     0.0140 cd         1 56K       0.443700
     12 N9          -1.2570    -0.9200     0.0390 nc         1 56K      -0.648000
     13 C13         -3.4800    -1.9880     0.0440 c3         1 56K      -0.126400
     14 H1           3.3710     2.6130     0.0620 ha         1 56K       0.127000
     15 H2           0.9180     2.5480     0.0340 ha         1 56K       0.128000
     16 H3           1.0650    -1.7410     0.0300 ha         1 56K       0.151000
     17 H4           4.6940     0.5430     0.0810 ha         1 56K       0.129000
     18 H5           3.2390    -2.7450    -0.2270 hn         1 56K       0.391800
     19 H6           4.6530    -1.8620    -0.1880 hn         1 56K       0.391800
     20 H7          -1.2910     2.4170    -0.0820 h4         1 56K       0.180000
     21 H8          -4.5190    -1.6740    -0.0210 hc         1 56K       0.057033
     22 H9          -3.2760    -2.6620    -0.7880 hc         1 56K       0.057033
     23 H10         -3.3550    -2.5530     0.9680 hc         1 56K       0.057033
@<TRIPOS>BOND
     1     1     2 ar  
     2     1     6 ar  
     3     1    14 1   
     4     2     3 ar  
     5     2    15 1   
     6     3     4 ar  
     7     3     7 1   
     8     4     5 ar  
     9     4    16 1   
    10     5     6 ar  
    11     5     8 1   
    12     6    17 1   
    13     7     9 2   
    14     7    12 1   
    15     8    18 1   
    16     8    19 1   
    17     9    10 1   
    18     9    20 1   
    19    10    11 1   
    20    11    12 2   
    21    11    13 1   
    22    13    21 1   
    23    13    22 1   
    24    13    23 1   
@<TRIPOS>SUBSTRUCTURE
     1 56K         1 TEMP              0 ****  ****    0 ROOT
