@<TRIPOS>MOLECULE
56K
   23    24     1     0     0
SMALL
No Charge or Current Charge


@<TRIPOS>ATOM
      1 C1           2.8340     1.6670     0.3070 ca         1 56K      -0.077000
      2 C2           1.4340     1.5700     0.2240 ca         1 56K      -0.143000
      3 C3           0.8080     0.3230    -0.0100 ca         1 56K      -0.082500
      4 C4           1.6260    -0.8260    -0.1190 ca         1 56K      -0.145000
      5 C5           3.0230    -0.7300    -0.0370 ca         1 56K       0.284000
      6 C6           3.6270     0.5170     0.1720 ca         1 56K      -0.172000
      7 C8          -0.6610     0.1960    -0.0620 cc         1 56K       0.351500
      8 N7           3.8010    -1.8510    -0.1590 nv         1 56K      -1.073000
      9 C12         -1.4380     1.2780    -0.4010 cd         1 56K      -0.262000
     10 S11         -3.1340     0.8270    -0.4060 ss         1 56K      -0.041400
     11 C10         -2.6150    -0.7980     0.0360 cd         1 56K       0.443700
     12 N9          -1.3110    -0.9880     0.1760 nc         1 56K      -0.648000
     13 C13         -3.5910    -1.9200     0.2370 c3         1 56K      -0.126400
     14 H1           3.3020     2.6330     0.4830 ha         1 56K       0.109000
     15 H2           0.8440     2.4740     0.3550 ha         1 56K       0.110000
     16 H3           1.1720    -1.8000    -0.2770 ha         1 56K       0.133000
     17 H4           4.7090     0.5980     0.2380 ha         1 56K       0.111000
     18 H5           3.3800    -2.7350    -0.4420 hn         1 56K       0.447000
     19 H6           4.8130    -1.7640    -0.2310 hn         1 56K       0.447000
     20 H7          -1.1330     2.2830    -0.6560 h4         1 56K       0.162000
     21 H8          -4.6230    -1.5750     0.1020 hc         1 56K       0.057033
     22 H9          -3.4100    -2.7280    -0.4810 hc         1 56K       0.057033
     23 H10         -3.5050    -2.3360     1.2470 hc         1 56K       0.057033
@<TRIPOS>BOND
     1     1     2 ar  
     2     1     6 ar  
     3     1    14 1   
     4     2     3 ar  
     5     2    15 1   
     6     3     4 ar  
     7     3     7 1   
     8     4     5 ar  
     9     4    16 1   
    10     5     6 ar  
    11     5     8 1   
    12     6    17 1   
    13     7     9 2   
    14     7    12 1   
    15     8    18 1   
    16     8    19 1   
    17     9    10 1   
    18     9    20 1   
    19    10    11 1   
    20    11    12 2   
    21    11    13 1   
    22    13    21 1   
    23    13    22 1   
    24    13    23 1   
@<TRIPOS>SUBSTRUCTURE
     1 56K         1 TEMP              0 ****  ****    0 ROOT
