@<TRIPOS>MOLECULE
56L
   22    22     1     0     0
SMALL
abcg2


@<TRIPOS>ATOM
      1 C10         -3.3850    -0.5530    -0.1210 c3         1 56L      -0.098100
      2 C9          -2.1940     0.3500    -0.4160 c3         1 56L      -0.039700
      3 C5           1.6190    -0.0870    -0.1230 cs         1 56L       0.453400
      4 C3          -0.4480    -1.0640     0.7510 c          1 56L       0.574000
      5 C2          -1.1120     0.2840     0.7090 c6         1 56L      -0.237700
      6 C1          -0.1690     1.4450     0.5390 c          1 56L       0.574000
      7 C11         -1.6210     0.0720    -1.8000 c3         1 56L      -0.098100
      8 O12         -0.9840    -2.0570     1.1780 o          1 56L      -0.483500
      9 N4           0.8250    -1.1330     0.2230 ns         1 56L      -0.422000
     10 N6           1.0930     1.1510     0.0710 ns         1 56L      -0.422000
     11 O8          -0.4950     2.5880     0.7490 o          1 56L      -0.483500
     12 H1          -3.7800    -0.3830     0.8810 hc         1 56L       0.045700
     13 H2          -4.1810    -0.3380    -0.8340 hc         1 56L       0.045700
     14 H3          -3.1390    -1.6100    -0.2160 hc         1 56L       0.045700
     15 H4          -2.5550     1.3820    -0.3900 hc         1 56L       0.070700
     16 H5          -1.6250     0.4250     1.6640 hc         1 56L       0.118700
     17 H6          -2.3950     0.2170    -2.5530 hc         1 56L       0.045700
     18 H7          -0.7960     0.7370    -2.0620 hc         1 56L       0.045700
     19 H8          -1.2710    -0.9580    -1.8970 hc         1 56L       0.045700
     20 H9           1.2440    -2.0520     0.1480 hn         1 56L       0.364000
     21 H10          1.7070     1.9320    -0.1280 hn         1 56L       0.364000
     22 S7           3.1390    -0.3040    -0.7160 s          1 56L      -0.510400
@<TRIPOS>BOND
     1     1     2 1   
     2     1    12 1   
     3     1    13 1   
     4     1    14 1   
     5     2     5 1   
     6     2     7 1   
     7     2    15 1   
     8     3     9 1   
     9     3    10 1   
    10     3    22 2   
    11     4     5 1   
    12     4     8 2   
    13     4     9 1   
    14     5     6 1   
    15     5    16 1   
    16     6    10 1   
    17     6    11 2   
    18     7    17 1   
    19     7    18 1   
    20     7    19 1   
    21     9    20 1   
    22    10    21 1   
@<TRIPOS>SUBSTRUCTURE
     1 56L         1 TEMP              0 ****  ****    0 ROOT
