@<TRIPOS>MOLECULE
56L
   22    22     1     0     0
SMALL
No Charge or Current Charge


@<TRIPOS>ATOM
      1 C10         -3.3940    -0.5830    -0.1700 c3         1 56L      -0.098100
      2 C9          -2.1850     0.3490    -0.4230 c3         1 56L      -0.039700
      3 C5           1.5660    -0.1100    -0.2380 cs         1 56L       0.453400
      4 C3          -0.4310    -1.0470     0.8290 c          1 56L       0.574000
      5 C2          -1.1260     0.3050     0.7410 c6         1 56L      -0.237700
      6 C1          -0.1300     1.4470     0.6010 c          1 56L       0.574000
      7 C11         -1.6000     0.0990    -1.8360 c3         1 56L      -0.098100
      8 O12         -0.8870    -1.9840     1.4630 o          1 56L      -0.483500
      9 N4           0.7890    -1.1250     0.2210 ns         1 56L      -0.422000
     10 N6           1.0650     1.1240     0.0260 ns         1 56L      -0.422000
     11 O8          -0.3520     2.5670     1.0280 o          1 56L      -0.483500
     12 H1          -3.8430    -0.3830     0.8110 hc         1 56L       0.045700
     13 H2          -4.1680    -0.4270    -0.9300 hc         1 56L       0.045700
     14 H3          -3.0960    -1.6380    -0.2040 hc         1 56L       0.045700
     15 H4          -2.6000     1.3670    -0.4430 hc         1 56L       0.070700
     16 H5          -1.7040     0.4650     1.6580 hc         1 56L       0.118700
     17 H6          -2.3800     0.2060    -2.5990 hc         1 56L       0.045700
     18 H7          -0.8090     0.8210    -2.0740 hc         1 56L       0.045700
     19 H8          -1.1830    -0.9110    -1.9220 hc         1 56L       0.045700
     20 H9           1.1960    -2.0490     0.1870 hn         1 56L       0.364000
     21 H10          1.6790     1.9040    -0.1610 hn         1 56L       0.364000
     22 S7           3.0690    -0.3530    -0.9080 s          1 56L      -0.510400
@<TRIPOS>BOND
     1     1     2 1   
     2     1    12 1   
     3     1    13 1   
     4     1    14 1   
     5     2     5 1   
     6     2     7 1   
     7     2    15 1   
     8     3     9 1   
     9     3    10 1   
    10     3    22 2   
    11     4     5 1   
    12     4     8 2   
    13     4     9 1   
    14     5     6 1   
    15     5    16 1   
    16     6    10 1   
    17     6    11 2   
    18     7    17 1   
    19     7    18 1   
    20     7    19 1   
    21     9    20 1   
    22    10    21 1   
@<TRIPOS>SUBSTRUCTURE
     1 56L         1 TEMP              0 ****  ****    0 ROOT
