@<TRIPOS>MOLECULE
56M
   53    54     1     0     0
SMALL
abcg2


@<TRIPOS>ATOM
      1 C11          0.4250    -1.2810    -0.1440 ca         1 56M      -0.069000
      2 C12          1.3970    -0.3470    -0.4730 ca         1 56M      -0.008000
      3 C13          2.7340    -0.7300    -0.5220 ca         1 56M      -0.308500
      4 C14          3.1200    -2.0370    -0.2750 ca         1 56M       0.005000
      5 C15          2.1510    -2.9730     0.0440 ca         1 56M      -0.204000
      6 C16          0.8160    -2.6080     0.1190 ca         1 56M       0.137100
      7 C4          -5.2250     0.4790     0.2980 cc         1 56M      -0.272600
      8 C3          -3.9760     1.0490    -0.1050 cc         1 56M      -0.004300
      9 C7          -3.0020     0.1400     0.2480 cd         1 56M      -0.276600
     10 C5          -4.9510    -0.7570     0.8910 cd         1 56M      -0.055300
     11 C8          -1.5500     0.2040     0.0530 c          1 56M       0.652700
     12 C26         -5.8300    -1.7710     1.5280 c3         1 56M      -0.037800
     13 C29         -6.7870     2.4280    -0.2770 c3         1 56M      -0.190100
     14 C23          6.9010     0.9270     1.0870 c3         1 56M      -0.106100
     15 C25          4.1890     3.5340     0.9370 c3         1 56M      -0.106100
     16 C2          -3.7450     2.3300    -0.8400 c3         1 56M      -0.036800
     17 N6          -3.6270    -0.9380     0.8370 na         1 56M      -0.096000
     18 N10         -0.9440    -1.0100    -0.0840 ns         1 56M      -0.152000
     19 N21          4.4720     1.0860     0.5550 n3         1 56M      -0.792500
     20 O28         -7.5470     0.3190     0.4750 o          1 56M      -0.557100
     21 O9          -0.9450     1.2640     0.0200 o          1 56M      -0.573100
     22 O19          5.0900    -0.1900    -1.4950 o          1 56M      -0.539000
     23 O20          3.3020     1.5790    -1.5900 o          1 56M      -0.539000
     24 O17         -0.1650    -3.4690     0.4260 oh         1 56M      -0.551100
     25 S18          3.9630     0.4940    -0.8790 sy         1 56M       1.192600
     26 H1           1.1110     0.6630    -0.7140 ha         1 56M       0.172000
     27 H2           4.1550    -2.3450    -0.3360 ha         1 56M       0.137000
     28 H3           2.4390    -3.9990     0.2400 ha         1 56M       0.119000
     29 H4          -6.4650    -1.3210     2.2900 hc         1 56M       0.060367
     30 H5          -6.4880    -2.2400     0.7980 hc         1 56M       0.060367
     31 H6          -5.2340    -2.5540     1.9960 hc         1 56M       0.060367
     32 H7          -6.5710     2.5170    -1.3430 hc         1 56M       0.059700
     33 H8          -7.8220     2.7260    -0.1160 hc         1 56M       0.059700
     34 H9          -6.1310     3.1260     0.2420 hc         1 56M       0.059700
     35 H10          6.9620     1.9760     1.3770 hc         1 56M       0.046700
     36 H11          7.6200     0.3730     1.6920 hc         1 56M       0.046700
     37 H12          7.2010     0.8420     0.0430 hc         1 56M       0.046700
     38 H13          5.2260     3.6570     1.2490 hc         1 56M       0.046700
     39 H14          4.1200     3.7720    -0.1230 hc         1 56M       0.046700
     40 H15          3.5880     4.2600     1.4860 hc         1 56M       0.046700
     41 H16         -3.8940     3.1960    -0.1930 hc         1 56M       0.053367
     42 H17         -2.7320     2.3890    -1.2270 hc         1 56M       0.053367
     43 H18         -4.4280     2.4340    -1.6810 hc         1 56M       0.053367
     44 H19          5.4860    -0.6920     1.0540 h1         1 56M       0.044450
     45 H20          5.2360     0.4290     2.3580 h1         1 56M       0.044450
     46 H21          3.7270     1.9230     2.2880 h1         1 56M       0.044450
     47 H22          2.6360     2.0440     0.9420 h1         1 56M       0.044450
     48 H23         -3.1580    -1.7050     1.2940 hn         1 56M       0.350000
     49 H24         -1.5390    -1.8180    -0.1850 hn         1 56M       0.163000
     50 H25          0.1770    -4.3660     0.5270 ho         1 56M       0.479000
     51 C27         -6.5830     1.0100     0.1860 c          1 56M       0.614700
     52 C22          5.5060     0.3700     1.3030 c3         1 56M       0.237800
     53 C24          3.6890     2.1290     1.2180 c3         1 56M       0.237800
@<TRIPOS>BOND
     1     1     2 ar  
     2     1     6 ar  
     3     1    18 1   
     4     2     3 ar  
     5     2    26 1   
     6     3     4 ar  
     7     3    25 1   
     8     4     5 ar  
     9     4    27 1   
    10     5     6 ar  
    11     5    28 1   
    12     6    24 1   
    13     7     8 1   
    14     7    10 2   
    15     7    51 1   
    16     8     9 2   
    17     8    16 1   
    18     9    11 1   
    19     9    17 1   
    20    10    12 1   
    21    10    17 1   
    22    11    18 1   
    23    11    21 2   
    24    12    29 1   
    25    12    30 1   
    26    12    31 1   
    27    13    32 1   
    28    13    33 1   
    29    13    34 1   
    30    13    51 1   
    31    14    35 1   
    32    14    36 1   
    33    14    37 1   
    34    14    52 1   
    35    15    38 1   
    36    15    39 1   
    37    15    40 1   
    38    15    53 1   
    39    16    41 1   
    40    16    42 1   
    41    16    43 1   
    42    17    48 1   
    43    18    49 1   
    44    19    25 1   
    45    19    52 1   
    46    19    53 1   
    47    20    51 2   
    48    22    25 2   
    49    23    25 2   
    50    24    50 1   
    51    44    52 1   
    52    45    52 1   
    53    46    53 1   
    54    47    53 1   
@<TRIPOS>SUBSTRUCTURE
     1 56M         1 TEMP              0 ****  ****    0 ROOT
