@<TRIPOS>MOLECULE
56M
   53    54     1     0     0
SMALL
No Charge or Current Charge


@<TRIPOS>ATOM
      1 C11          0.4820    -1.3410     0.1690 ca         1 56M      -0.069000
      2 C12          1.5430    -0.5330    -0.3000 ca         1 56M      -0.008000
      3 C13          2.8730    -1.0040    -0.2470 ca         1 56M      -0.308500
      4 C14          3.1470    -2.2860     0.2640 ca         1 56M       0.005000
      5 C15          2.0950    -3.0930     0.7240 ca         1 56M      -0.204000
      6 C16          0.7740    -2.6260     0.6780 ca         1 56M       0.137100
      7 C4          -5.2290     0.6860     0.0550 cc         1 56M      -0.272600
      8 C3          -3.9310     1.1700    -0.3360 cc         1 56M      -0.004300
      9 C7          -3.0040     0.1830    -0.0370 cd         1 56M      -0.276600
     10 C5          -5.0850    -0.6000     0.5320 cd         1 56M      -0.055300
     11 C8          -1.5120     0.2540    -0.2050 c          1 56M       0.652700
     12 C26         -6.0960    -1.5840     1.0740 c3         1 56M      -0.037800
     13 C29         -6.7030     2.8550    -0.3780 c3         1 56M      -0.190100
     14 C23          6.3350     2.6160     0.2570 c3         1 56M      -0.106100
     15 C25          3.3220     1.9180     1.7900 c3         1 56M      -0.106100
     16 C2          -3.6610     2.5140    -0.9820 c3         1 56M      -0.036800
     17 N6          -3.7320    -0.9040     0.4740 na         1 56M      -0.096000
     18 N10         -0.8840    -0.9310     0.1530 ns         1 56M      -0.152000
     19 N21          5.0560     0.4130     0.6150 n3         1 56M      -0.792500
     20 O28         -7.6030     0.7940     0.3060 o          1 56M      -0.557100
     21 O9          -0.9070     1.2420    -0.5970 o          1 56M      -0.573100
     22 O19          5.1400    -0.8620    -1.5690 o          1 56M      -0.539000
     23 O20          3.7150     1.2700    -1.4030 o          1 56M      -0.539000
     24 O17         -0.2340    -3.4290     1.1330 oh         1 56M      -0.551100
     25 S18          4.2340     0.0240    -0.8290 sy         1 56M       1.192600
     26 H1           1.3520     0.4560    -0.7080 ha         1 56M       0.172000
     27 H2           4.1710    -2.6550     0.3100 ha         1 56M       0.137000
     28 H3           2.3180    -4.0810     1.1180 ha         1 56M       0.119000
     29 H4          -6.6190    -1.1730     1.9460 hc         1 56M       0.060367
     30 H5          -6.8460    -1.8370     0.3160 hc         1 56M       0.060367
     31 H6          -5.6200    -2.5200     1.3890 hc         1 56M       0.060367
     32 H7          -6.5110     2.9590    -1.4500 hc         1 56M       0.059700
     33 H8          -7.7010     3.2480    -0.1510 hc         1 56M       0.059700
     34 H9          -5.9250     3.4490     0.1080 hc         1 56M       0.059700
     35 H10          6.0310     3.1370     1.1710 hc         1 56M       0.046700
     36 H11          7.3380     2.9730    -0.0030 hc         1 56M       0.046700
     37 H12          5.6570     2.8950    -0.5570 hc         1 56M       0.046700
     38 H13          3.8660     2.8420     1.5770 hc         1 56M       0.046700
     39 H14          2.5410     1.7970     1.0340 hc         1 56M       0.046700
     40 H15          2.8270     2.0390     2.7600 hc         1 56M       0.046700
     41 H16         -3.6710     3.3220    -0.2420 hc         1 56M       0.053367
     42 H17         -2.6980     2.5540    -1.4940 hc         1 56M       0.053367
     43 H18         -4.3880     2.7350    -1.7680 hc         1 56M       0.053367
     44 H19          6.9240     0.6440    -0.3590 h1         1 56M       0.044450
     45 H20          6.9670     0.8990     1.3730 h1         1 56M       0.044450
     46 H21          4.9440     0.8280     2.6840 h1         1 56M       0.044450
     47 H22          3.6500    -0.1860     2.0900 h1         1 56M       0.044450
     48 H23         -3.3410    -1.7900     0.7820 hn         1 56M       0.350000
     49 H24         -1.5130    -1.6560     0.4690 hn         1 56M       0.163000
     50 H25          0.1590    -4.2720     1.4440 ho         1 56M       0.479000
     51 C27         -6.5690     1.3810     0.0080 c          1 56M       0.614700
     52 C22          6.3660     1.0910     0.4740 c3         1 56M       0.237800
     53 C24          4.2590     0.6910     1.8360 c3         1 56M       0.237800
@<TRIPOS>BOND
     1     1     2 ar  
     2     1     6 ar  
     3     1    18 1   
     4     2     3 ar  
     5     2    26 1   
     6     3     4 ar  
     7     3    25 1   
     8     4     5 ar  
     9     4    27 1   
    10     5     6 ar  
    11     5    28 1   
    12     6    24 1   
    13     7     8 1   
    14     7    10 2   
    15     7    51 1   
    16     8     9 2   
    17     8    16 1   
    18     9    11 1   
    19     9    17 1   
    20    10    12 1   
    21    10    17 1   
    22    11    18 1   
    23    11    21 2   
    24    12    29 1   
    25    12    30 1   
    26    12    31 1   
    27    13    32 1   
    28    13    33 1   
    29    13    34 1   
    30    13    51 1   
    31    14    35 1   
    32    14    36 1   
    33    14    37 1   
    34    14    52 1   
    35    15    38 1   
    36    15    39 1   
    37    15    40 1   
    38    15    53 1   
    39    16    41 1   
    40    16    42 1   
    41    16    43 1   
    42    17    48 1   
    43    18    49 1   
    44    19    25 1   
    45    19    52 1   
    46    19    53 1   
    47    20    51 2   
    48    22    25 2   
    49    23    25 2   
    50    24    50 1   
    51    44    52 1   
    52    45    52 1   
    53    46    53 1   
    54    47    53 1   
@<TRIPOS>SUBSTRUCTURE
     1 56M         1 TEMP              0 ****  ****    0 ROOT
