@<TRIPOS>MOLECULE
56N
   34    35     1     0     0
SMALL
abcg2


@<TRIPOS>ATOM
      1 O2          -1.0520     2.6880     0.4440 oh         1 56N      -0.727000
      2 O3          -3.7160     1.6570     0.2990 oh         1 56N      -0.667000
      3 O4          -3.2370    -0.6090    -1.2280 oh         1 56N      -0.707000
      4 O5          -0.5220    -0.8150    -0.3820 os         1 56N      -0.447000
      5 C1          -0.1790     0.4500     0.0980 c6         1 56N       0.370300
      6 C2          -1.3310     1.4290    -0.1170 c6         1 56N       0.108300
      7 C3          -2.5760     0.8830     0.5750 c6         1 56N       0.140300
      8 C4          -2.8650    -0.5480     0.1260 c6         1 56N       0.148300
      9 C5          -1.6070    -1.3820     0.3290 c6         1 56N       0.179300
     10 C6          -1.7640    -2.8210    -0.1100 c3         1 56N       0.172600
     11 O6          -0.6250    -3.5340     0.3090 oh         1 56N      -0.719000
     12 O1           0.9140     0.9120    -0.6290 os         1 56N      -0.347100
     13 C7           2.1670     0.5170    -0.2710 ca         1 56N       0.132100
     14 C8           3.2050     1.3630    -0.6540 ca         1 56N      -0.152500
     15 C9           4.5140     1.0380    -0.3380 ca         1 56N      -0.083500
     16 C10          4.8000    -0.1240     0.3690 ca         1 56N      -0.139000
     17 C11          3.7610    -0.9620     0.7440 ca         1 56N      -0.083500
     18 C12          2.4430    -0.6570     0.4230 ca         1 56N      -0.152500
     19 H1          -0.4420     3.1580    -0.1330 ho         1 56N       0.525000
     20 H2          -3.5150     2.5810     0.4830 ho         1 56N       0.470000
     21 H3          -3.9650     0.0070    -1.3640 ho         1 56N       0.522000
     22 H4           0.0710     0.3990     1.1730 h2         1 56N       0.042700
     23 H5          -1.5230     1.5020    -1.1960 h1         1 56N       0.077700
     24 H6          -2.3760     0.8540     1.6580 h1         1 56N       0.048700
     25 H7          -3.6530    -0.9590     0.7740 h1         1 56N       0.050700
     26 H8          -1.3900    -1.3810     1.4100 h1         1 56N       0.048700
     27 H9          -2.6810    -3.2130     0.3480 h1         1 56N       0.040200
     28 H10         -1.8990    -2.8680    -1.1970 h1         1 56N       0.040200
     29 H11         -0.7090    -4.4400    -0.0010 ho         1 56N       0.508000
     30 H12          2.9780     2.2720    -1.1960 ha         1 56N       0.130000
     31 H13          5.3130     1.7030    -0.6390 ha         1 56N       0.113000
     32 H14          5.8220    -0.3750     0.6190 ha         1 56N       0.114000
     33 H15          3.9700    -1.8760     1.2840 ha         1 56N       0.113000
     34 H16          1.6580    -1.3510     0.6930 ha         1 56N       0.130000
@<TRIPOS>BOND
     1     1     6 1   
     2     1    19 1   
     3     2     7 1   
     4     2    20 1   
     5     3     8 1   
     6     3    21 1   
     7     4     5 1   
     8     4     9 1   
     9     5     6 1   
    10     5    12 1   
    11     5    22 1   
    12     6     7 1   
    13     6    23 1   
    14     7     8 1   
    15     7    24 1   
    16     8     9 1   
    17     8    25 1   
    18     9    10 1   
    19     9    26 1   
    20    10    11 1   
    21    10    27 1   
    22    10    28 1   
    23    11    29 1   
    24    12    13 1   
    25    13    14 ar  
    26    13    18 ar  
    27    14    15 ar  
    28    14    30 1   
    29    15    16 ar  
    30    15    31 1   
    31    16    17 ar  
    32    16    32 1   
    33    17    18 ar  
    34    17    33 1   
    35    18    34 1   
@<TRIPOS>SUBSTRUCTURE
     1 56N         1 TEMP              0 ****  ****    0 ROOT
