@<TRIPOS>MOLECULE
56N
   34    35     1     0     0
SMALL
No Charge or Current Charge


@<TRIPOS>ATOM
      1 O2          -1.2950     2.8590     0.4460 oh         1 56N      -0.727000
      2 O3          -3.8950     1.6390     0.2720 oh         1 56N      -0.667000
      3 O4          -3.3090    -0.5970    -1.2970 oh         1 56N      -0.707000
      4 O5          -0.4620    -0.7220    -0.3030 os         1 56N      -0.447000
      5 C1          -0.2230     0.5950     0.2350 c6         1 56N       0.370300
      6 C2          -1.4660     1.5040    -0.0460 c6         1 56N       0.108300
      7 C3          -2.7330     0.8510     0.5870 c6         1 56N       0.140300
      8 C4          -2.9150    -0.6170     0.0900 c6         1 56N       0.148300
      9 C5          -1.5800    -1.4020     0.3290 c6         1 56N       0.179300
     10 C6          -1.6410    -2.8740    -0.1980 c3         1 56N       0.172600
     11 O6          -0.4410    -3.6290     0.0760 oh         1 56N      -0.719000
     12 O1           0.9520     1.1640    -0.3760 os         1 56N      -0.347100
     13 C7           2.2120     0.6510    -0.1360 ca         1 56N       0.132100
     14 C8           3.2920     1.2410    -0.8160 ca         1 56N      -0.152500
     15 C9           4.6030     0.7780    -0.6140 ca         1 56N      -0.083500
     16 C10          4.8420    -0.2820     0.2770 ca         1 56N      -0.139000
     17 C11          3.7710    -0.8770     0.9640 ca         1 56N      -0.083500
     18 C12          2.4580    -0.4140     0.7620 ca         1 56N      -0.152500
     19 H1          -0.4290     3.1810     0.0950 ho         1 56N       0.525000
     20 H2          -3.6040     2.5740     0.3950 ho         1 56N       0.470000
     21 H3          -3.9200     0.1780    -1.3630 ho         1 56N       0.522000
     22 H4          -0.0700     0.5320     1.3230 h2         1 56N       0.042700
     23 H5          -1.6020     1.5240    -1.1390 h1         1 56N       0.077700
     24 H6          -2.5910     0.8240     1.6780 h1         1 56N       0.048700
     25 H7          -3.7050    -1.0890     0.6940 h1         1 56N       0.050700
     26 H8          -1.3900    -1.4490     1.4110 h1         1 56N       0.048700
     27 H9          -2.5070    -3.3650     0.2680 h1         1 56N       0.040200
     28 H10         -1.8280    -2.8460    -1.2800 h1         1 56N       0.040200
     29 H11         -0.5410    -4.5010    -0.3720 ho         1 56N       0.508000
     30 H12          3.1090     2.0620    -1.5050 ha         1 56N       0.130000
     31 H13          5.4330     1.2400    -1.1460 ha         1 56N       0.113000
     32 H14          5.8560    -0.6420     0.4340 ha         1 56N       0.114000
     33 H15          3.9570    -1.6980     1.6530 ha         1 56N       0.113000
     34 H16          1.6510    -0.8950     1.3060 ha         1 56N       0.130000
@<TRIPOS>BOND
     1     1     6 1   
     2     1    19 1   
     3     2     7 1   
     4     2    20 1   
     5     3     8 1   
     6     3    21 1   
     7     4     5 1   
     8     4     9 1   
     9     5     6 1   
    10     5    12 1   
    11     5    22 1   
    12     6     7 1   
    13     6    23 1   
    14     7     8 1   
    15     7    24 1   
    16     8     9 1   
    17     8    25 1   
    18     9    10 1   
    19     9    26 1   
    20    10    11 1   
    21    10    27 1   
    22    10    28 1   
    23    11    29 1   
    24    12    13 1   
    25    13    14 ar  
    26    13    18 ar  
    27    14    15 ar  
    28    14    30 1   
    29    15    16 ar  
    30    15    31 1   
    31    16    17 ar  
    32    16    32 1   
    33    17    18 ar  
    34    17    33 1   
    35    18    34 1   
@<TRIPOS>SUBSTRUCTURE
     1 56N         1 TEMP              0 ****  ****    0 ROOT
