@<TRIPOS>MOLECULE
56O
   76    78     1     0     0
SMALL
bcc


@<TRIPOS>ATOM
      1 C4          -7.0100     2.3890    -0.7320 ca         1 56O      -0.122500
      2 C5          -5.6370     2.4940    -0.6030 ca         1 56O      -0.102500
      3 C8          -2.6000     0.8510     1.0360 cc         1 56O      -0.406600
      4 C2          -6.9580     0.2690     0.3810 ca         1 56O      -0.122500
      5 C6          -4.9050     1.4850     0.0240 ca         1 56O      -0.115500
      6 O44          9.2970     4.5280     1.2520 o          1 56O      -0.848300
      7 C42          9.5510     3.4730     0.6370 c          1 56O       0.928600
      8 O43         10.6720     2.9440     0.5050 o          1 56O      -0.848300
      9 C40          8.6820     1.5170    -0.8060 c3         1 56O      -0.063400
     10 C29          7.4650     0.9070    -1.5060 c3         1 56O       0.025700
     11 C37          7.9110    -0.2550    -2.3980 c          1 56O       0.656100
     12 N39          8.3160     0.1120    -3.6210 nt         1 56O      -0.681000
     13 O38          7.9310    -1.4060    -1.9950 o          1 56O      -0.593100
     14 N28          6.5010     0.4480    -0.5410 ns         1 56O      -0.531900
     15 C27          5.3150    -0.0450    -0.9230 c          1 56O       0.655100
     16 O36          4.9130     0.0180    -2.0760 o          1 56O      -0.654100
     17 C26          4.5120    -0.7420     0.1660 c3         1 56O       0.023700
     18 C31          4.8640    -2.2360     0.1510 c3         1 56O      -0.062400
     19 C32          4.2510    -2.9920     1.3160 c3         1 56O      -0.210400
     20 C33          4.5490    -4.5010     1.3400 c          1 56O       0.928600
     21 O35          4.2970    -5.0920     2.4110 o          1 56O      -0.852800
     22 O34          4.9950    -5.0210     0.2980 o          1 56O      -0.852800
     23 N25          3.1080    -0.5130    -0.0730 ns         1 56O      -0.540900
     24 C20          2.2530     0.0270     0.8120 c          1 56O       0.687100
     25 O30          2.5710     0.3510     1.9440 o          1 56O      -0.599100
     26 C19          0.8530     0.2790     0.2510 c3         1 56O      -0.130700
     27 C21          0.1770    -0.9820    -0.2990 c3         1 56O      -0.156400
     28 C22         -0.1830    -1.9680     0.7890 c          1 56O       0.657100
     29 N24         -1.4200    -2.4770     0.6610 ns         1 56O      -0.475400
     30 O24         -1.9210    -3.3220     1.6010 oh         1 56O      -0.391100
     31 O23          0.5900    -2.2850     1.6750 o          1 56O      -0.510100
     32 C9          -1.3640     1.3290     0.7640 cd         1 56O       0.310000
     33 O10         -1.4590     2.2580    -0.1940 os         1 56O      -0.108100
     34 N11         -2.7560     2.4120    -0.5670 nd         1 56O      -0.375300
     35 C7          -3.4500     1.5800     0.1620 cc         1 56O       0.381800
     36 C1          -5.5840     0.3730     0.5150 ca         1 56O      -0.102500
     37 C3          -7.6950     1.2750    -0.2440 cp         1 56O      -0.042000
     38 C12         -9.1590     1.1660    -0.3860 cp         1 56O      -0.014000
     39 C17         -9.7490    -0.0700    -0.6510 ca         1 56O      -0.112000
     40 C13         -9.9780     2.2890    -0.2600 ca         1 56O      -0.118000
     41 C14        -11.3530     2.1780    -0.3950 ca         1 56O      -0.123000
     42 C15        -11.9420     0.9500    -0.6580 ca         1 56O      -0.126000
     43 C16        -11.1240    -0.1620    -0.7830 ca         1 56O       0.028400
     44 CL         -11.8360    -1.7060    -1.1230 cl         1 56O      -0.119400
     45 H1          -7.5510     3.1810    -1.2340 ha         1 56O       0.132500
     46 H2          -5.1330     3.3690    -0.9920 ha         1 56O       0.148000
     47 H3          -2.8650     0.1110     1.7730 ha         1 56O       0.180000
     48 H4          -7.4610    -0.6000     0.7870 ha         1 56O       0.132500
     49 H6           7.6250     2.5380     0.7830 hc         1 56O       0.022700
     50 H7           7.8300     3.4850    -0.6590 hc         1 56O       0.022700
     51 H8           9.4230     1.7600    -1.5700 hc         1 56O       0.054700
     52 H9           9.1450     0.7620    -0.1640 hc         1 56O       0.054700
     53 H10          7.0010     1.6770    -2.1310 h1         1 56O       0.058700
     54 H11          8.2680     1.0670    -3.9340 hn         1 56O       0.300000
     55 H12          8.6930    -0.5660    -4.2630 hn         1 56O       0.300000
     56 H13          6.8090     0.2960     0.4070 hn         1 56O       0.335500
     57 H14          4.7600    -0.3200     1.1420 h1         1 56O       0.088700
     58 H15          4.5380    -2.6650    -0.7990 hc         1 56O       0.061200
     59 H16          5.9530    -2.3310     0.1700 hc         1 56O       0.061200
     60 H17          4.5860    -2.5500     2.2600 hc         1 56O       0.029700
     61 H18          3.1630    -2.8640     1.3110 hc         1 56O       0.029700
     62 H20          2.7880    -0.6900    -1.0130 hn         1 56O       0.315500
     63 H21          0.9920     0.9490    -0.6050 hc         1 56O       0.070700
     64 H22         -0.7000    -0.6980    -0.8830 hc         1 56O       0.064200
     65 H23          0.8350    -1.4970    -1.0020 hc         1 56O       0.064200
     66 H24         -2.0860    -2.1400    -0.0180 hn         1 56O       0.324500
     67 H25         -1.7350    -4.2180     1.2900 ho         1 56O       0.404000
     68 H26         -0.1340     0.3990     2.1850 hc         1 56O       0.093700
     69 H27          0.4830     1.9260     1.5990 hc         1 56O       0.093700
     70 H28         -5.0440    -0.4270     1.0040 ha         1 56O       0.148000
     71 H29         -9.1350    -0.9530    -0.7750 ha         1 56O       0.152000
     72 H30         -9.5430     3.2540    -0.0330 ha         1 56O       0.139000
     73 H31        -11.9780     3.0540    -0.2870 ha         1 56O       0.132000
     74 H32        -13.0150     0.8620    -0.7620 ha         1 56O       0.142000
     75 C71         -0.0140     1.0050     1.2870 c3         1 56O      -0.116700
     76 C41          8.3440     2.7670    -0.0100 c3         1 56O      -0.210400
@<TRIPOS>BOND
     1     1     2 ar  
     2     1    37 ar  
     3     1    45 1   
     4     2     5 ar  
     5     2    46 1   
     6     3    32 2   
     7     3    35 1   
     8     3    47 1   
     9     4    36 ar  
    10     4    37 ar  
    11     4    48 1   
    12     5    35 1   
    13     5    36 ar  
    14     6     7 1   
    15     7     8 1   
    16     7    76 1   
    17     9    10 1   
    18     9    51 1   
    19     9    52 1   
    20     9    76 1   
    21    10    11 1   
    22    10    14 1   
    23    10    53 1   
    24    11    12 1   
    25    11    13 2   
    26    12    54 1   
    27    12    55 1   
    28    14    15 1   
    29    14    56 1   
    30    15    16 2   
    31    15    17 1   
    32    17    18 1   
    33    17    23 1   
    34    17    57 1   
    35    18    19 1   
    36    18    58 1   
    37    18    59 1   
    38    19    20 1   
    39    19    60 1   
    40    19    61 1   
    41    20    21 1   
    42    20    22 1   
    43    23    24 1   
    44    23    62 1   
    45    24    25 2   
    46    24    26 1   
    47    26    27 1   
    48    26    63 1   
    49    26    75 1   
    50    27    28 1   
    51    27    64 1   
    52    27    65 1   
    53    28    29 1   
    54    28    31 2   
    55    29    30 1   
    56    29    66 1   
    57    30    67 1   
    58    32    33 1   
    59    32    75 1   
    60    33    34 1   
    61    34    35 2   
    62    36    70 1   
    63    37    38 1   
    64    38    39 ar  
    65    38    40 ar  
    66    39    43 ar  
    67    39    71 1   
    68    40    41 ar  
    69    40    72 1   
    70    41    42 ar  
    71    41    73 1   
    72    42    43 ar  
    73    42    74 1   
    74    43    44 1   
    75    49    76 1   
    76    50    76 1   
    77    68    75 1   
    78    69    75 1   
@<TRIPOS>SUBSTRUCTURE
     1 56O         1 TEMP              0 ****  ****    0 ROOT
