@<TRIPOS>MOLECULE
56O
   76    78     1     0     0
SMALL
No Charge or Current Charge


@<TRIPOS>ATOM
      1 C4          -6.9280     1.7760    -1.2590 ca         1 56O      -0.104500
      2 C5          -5.5380     1.6230    -1.3950 ca         1 56O      -0.084500
      3 C8          -2.4020     0.6210     0.5580 cc         1 56O      -0.258000
      4 C2          -6.7800     1.0780     1.0530 ca         1 56O      -0.104500
      5 C6          -4.7440     1.1960    -0.3070 ca         1 56O      -0.115500
      6 O44          7.0830     5.4820     0.2550 o          1 56O      -0.743000
      7 C42          6.8030     4.4530     0.8510 c          1 56O       0.718000
      8 O43          6.7450     4.3710     2.0680 o          1 56O      -0.743000
      9 C40          7.9300     2.4310    -0.1820 c3         1 56O      -0.063400
     10 C29          7.8540     1.1810    -1.1070 c3         1 56O       0.025700
     11 C37          9.2530     0.5250    -1.3200 c          1 56O       0.589100
     12 N39         10.2060     1.3000    -1.8900 nt         1 56O      -0.614000
     13 O38          9.5220    -0.6220    -0.9970 o          1 56O      -0.593100
     14 N28          6.8910     0.1750    -0.5980 ns         1 56O      -0.464900
     15 C27          5.5850     0.0320    -1.0210 c          1 56O       0.588100
     16 O36          5.1040     0.7410    -1.8990 o          1 56O      -0.654100
     17 C26          4.7830    -1.0930    -0.3040 c3         1 56O       0.023700
     18 C31          5.2800    -2.5020    -0.7350 c3         1 56O      -0.062400
     19 C32          4.5910    -3.6880    -0.0080 c3         1 56O      -0.210400
     20 C33          5.2430    -5.0170    -0.4230 c          1 56O       0.718000
     21 O35          6.2070    -5.4100     0.2150 o          1 56O      -0.747500
     22 O34          4.8040    -5.5910    -1.4080 o          1 56O      -0.747500
     23 N25          3.3340    -0.9290    -0.5670 ns         1 56O      -0.473900
     24 C20          2.3280    -1.1230     0.3550 c          1 56O       0.620100
     25 O30          2.5620    -1.4170     1.5190 o          1 56O      -0.599100
     26 C19          0.8940    -0.9090    -0.1870 c3         1 56O      -0.130700
     27 C21          0.0880    -2.2490    -0.2670 c3         1 56O      -0.156400
     28 C22         -0.5780    -2.6900     1.0490 c          1 56O       0.590100
     29 N24         -1.9650    -2.5830     1.0680 ns         1 56O      -0.408400
     30 O24         -2.7060    -2.7190     2.3030 oh         1 56O      -0.430100
     31 O23          0.0530    -3.1600     1.9850 o          1 56O      -0.510100
     32 C9          -1.1750     0.6060    -0.0100 cd         1 56O       0.200300
     33 O10         -1.2710     0.9980    -1.3170 os         1 56O      -0.063700
     34 N11         -2.6550     1.2740    -1.6030 nd         1 56O      -0.375300
     35 C7          -3.2850     1.0370    -0.4590 cc         1 56O       0.316500
     36 C1          -5.3890     0.9250     0.9210 ca         1 56O      -0.084500
     37 C3          -7.5810     1.5070    -0.0320 cp         1 56O      -0.042000
     38 C12         -9.0630     1.6700     0.1110 cp         1 56O      -0.014000
     39 C17         -9.8190     0.8010     0.9400 ca         1 56O      -0.094000
     40 C13         -9.7590     2.6970    -0.5760 ca         1 56O      -0.100000
     41 C14        -11.1500     2.8510    -0.4420 ca         1 56O      -0.105000
     42 C15        -11.8760     1.9780     0.3840 ca         1 56O      -0.108000
     43 C16        -11.2080     0.9540     1.0740 ca         1 56O       0.120000
     44 Cl         -12.1160    -0.1440     2.1050 cl         1 56O      -0.211000
     45 H1          -7.5060     2.0950    -2.1230 ha         1 56O       0.114500
     46 H2          -5.0840     1.8390    -2.3600 ha         1 56O       0.130000
     47 H3          -2.6490     0.3660     1.5800 ha         1 56O       0.162000
     48 H4          -7.2390     0.8740     2.0170 ha         1 56O       0.114500
     49 H6           5.9290     2.4810     0.5700 hc         1 56O       0.022700
     50 H7           6.2210     3.4260    -0.9790 hc         1 56O       0.022700
     51 H8           8.6520     3.1410    -0.6030 hc         1 56O       0.054700
     52 H9           8.3270     2.1280     0.7950 hc         1 56O       0.054700
     53 H10          7.5220     1.5130    -2.0990 h1         1 56O       0.058700
     54 H11          9.9930     2.2480    -2.1650 hn         1 56O       0.300000
     55 H12         11.1260     0.9150    -2.0440 hn         1 56O       0.300000
     56 H13          7.2170    -0.4780     0.1060 hn         1 56O       0.335500
     57 H14          4.9660    -0.9680     0.7720 h1         1 56O       0.088700
     58 H15          5.1400    -2.6140    -1.8180 hc         1 56O       0.061200
     59 H16          6.3610    -2.5670    -0.5560 hc         1 56O       0.061200
     60 H17          4.7390    -3.5110     1.0640 hc         1 56O       0.029700
     61 H18          3.5400    -3.6730    -0.3190 hc         1 56O       0.029700
     62 H20          3.0520    -0.6360    -1.4960 hn         1 56O       0.315500
     63 H21          1.0120    -0.5820    -1.2290 hc         1 56O       0.070700
     64 H22         -0.6910    -2.1190    -1.0280 hc         1 56O       0.064200
     65 H23          0.7680    -3.0450    -0.5970 hc         1 56O       0.064200
     66 H24         -2.4360    -2.0840     0.3150 hn         1 56O       0.324500
     67 H25         -3.4120    -3.3710     2.0810 ho         1 56O       0.443000
     68 H26          0.0560    -0.0190     1.6260 hc         1 56O       0.093700
     69 H27          0.8070     1.1360     0.5490 hc         1 56O       0.093700
     70 H28         -4.8250     0.5960     1.7890 ha         1 56O       0.130000
     71 H29         -9.3270    -0.0080     1.4730 ha         1 56O       0.134000
     72 H30         -9.2140     3.3920    -1.2100 ha         1 56O       0.121000
     73 H31        -11.6640     3.6480    -0.9760 ha         1 56O       0.114000
     74 H32        -12.9520     2.0930     0.4910 ha         1 56O       0.124000
     75 C71          0.1680     0.2440     0.5670 c3         1 56O      -0.116700
     76 C41          6.5830     3.1730     0.0250 c3         1 56O      -0.210400
@<TRIPOS>BOND
     1     1     2 ar  
     2     1    37 ar  
     3     1    45 1   
     4     2     5 ar  
     5     2    46 1   
     6     3    32 2   
     7     3    35 1   
     8     3    47 1   
     9     4    36 ar  
    10     4    37 ar  
    11     4    48 1   
    12     5    35 1   
    13     5    36 ar  
    14     6     7 1   
    15     7     8 1   
    16     7    76 1   
    17     9    10 1   
    18     9    51 1   
    19     9    52 1   
    20     9    76 1   
    21    10    11 1   
    22    10    14 1   
    23    10    53 1   
    24    11    12 1   
    25    11    13 2   
    26    12    54 1   
    27    12    55 1   
    28    14    15 1   
    29    14    56 1   
    30    15    16 2   
    31    15    17 1   
    32    17    18 1   
    33    17    23 1   
    34    17    57 1   
    35    18    19 1   
    36    18    58 1   
    37    18    59 1   
    38    19    20 1   
    39    19    60 1   
    40    19    61 1   
    41    20    21 1   
    42    20    22 1   
    43    23    24 1   
    44    23    62 1   
    45    24    25 2   
    46    24    26 1   
    47    26    27 1   
    48    26    63 1   
    49    26    75 1   
    50    27    28 1   
    51    27    64 1   
    52    27    65 1   
    53    28    29 1   
    54    28    31 2   
    55    29    30 1   
    56    29    66 1   
    57    30    67 1   
    58    32    33 1   
    59    32    75 1   
    60    33    34 1   
    61    34    35 2   
    62    36    70 1   
    63    37    38 1   
    64    38    39 ar  
    65    38    40 ar  
    66    39    43 ar  
    67    39    71 1   
    68    40    41 ar  
    69    40    72 1   
    70    41    42 ar  
    71    41    73 1   
    72    42    43 ar  
    73    42    74 1   
    74    43    44 1   
    75    49    76 1   
    76    50    76 1   
    77    68    75 1   
    78    69    75 1   
@<TRIPOS>SUBSTRUCTURE
     1 56O         1 TEMP              0 ****  ****    0 ROOT
