@<TRIPOS>MOLECULE
56P
   51    51     1     0     0
SMALL
bcc


@<TRIPOS>ATOM
      1 C1           0.2310     1.8990     0.9010 c3         1 56P       0.176500
      2 C2          -0.3050     3.0940     0.1080 c          1 56P       0.658100
      3 C20         -3.3040    -1.2410     0.4810 c3         1 56P      -0.071400
      4 O5           0.1500     5.3240    -0.4420 oh         1 56P      -0.380100
      5 N6           0.0110     0.6640     0.1570 n3         1 56P      -0.783500
      6 C10          2.2700    -0.6250    -0.6080 ca         1 56P      -0.306500
      7 C11          3.3920    -0.0300    -0.0410 ca         1 56P      -0.014000
      8 C12          4.4230    -0.8060     0.4720 ca         1 56P      -0.135300
      9 C13          4.2720    -2.1850     0.3830 ca         1 56P       0.184900
     10 C14          3.1740    -2.7960    -0.1880 ca         1 56P      -0.189000
     11 C15          2.1550    -2.0050    -0.6940 ca         1 56P      -0.010000
     12 C19         -2.3790    -0.0950     0.0920 c3         1 56P      -0.097400
     13 C18         -0.9540    -0.3600     0.5490 c3         1 56P       0.243800
     14 C28         -0.4320     1.8810     2.2750 c3         1 56P      -0.095100
     15 N4           0.4440     4.2000     0.2710 ns         1 56P      -0.439400
     16 O3          -1.3440     3.0570    -0.5180 o          1 56P      -0.551100
     17 S7           0.9370     0.4010    -1.1670 sy         1 56P       1.337200
     18 O8           0.1710    -0.3740    -2.1290 o          1 56P      -0.605300
     19 O9           1.4980     1.6880    -1.5520 o          1 56P      -0.605300
     20 F16          5.2500    -2.9580     0.8720 f          1 56P      -0.135900
     21 C17          5.6430    -0.1970     1.0920 c3         1 56P      -0.043800
     22 H1           1.3030     2.0260     1.0810 h1         1 56P       0.053700
     23 H2          -2.9550    -2.1660     0.0090 hc         1 56P       0.035200
     24 H3          -3.2430    -1.4120     1.5620 hc         1 56P       0.035200
     25 H5          -0.3330     5.9030     0.1620 ho         1 56P       0.404000
     26 H6           3.4850     1.0470    -0.0020 ha         1 56P       0.149000
     27 H7           3.1160    -3.8750    -0.2430 ha         1 56P       0.157000
     28 H8           1.2970    -2.4720    -1.1550 ha         1 56P       0.160000
     29 H9          -2.3930     0.0460    -0.9910 hc         1 56P       0.065200
     30 H10         -2.7390     0.8400     0.5290 hc         1 56P       0.065200
     31 H11         -0.6190    -1.3240     0.1590 h1         1 56P       0.045200
     32 H12         -0.9170    -0.4700     1.6330 h1         1 56P       0.045200
     33 H13         -1.5130     1.7590     2.2140 hc         1 56P       0.052700
     34 H14         -0.0200     1.0900     2.8980 hc         1 56P       0.052700
     35 H15         -0.2270     2.8280     2.7720 hc         1 56P       0.052700
     36 H16          1.4010     4.1520     0.5920 hn         1 56P       0.332500
     37 H17          5.7140    -0.4450     2.1520 hc         1 56P       0.050367
     38 H18          6.5570    -0.5500     0.6130 hc         1 56P       0.050367
     39 H19          5.6170     0.8870     1.0050 hc         1 56P       0.050367
     40 C21         -4.7560    -0.9930     0.0940 c3         1 56P      -0.074400
     41 C22         -5.6720    -2.1580     0.4480 c3         1 56P      -0.078400
     42 C23         -7.1250    -1.8990     0.0830 c3         1 56P       0.149800
     43 N24         -7.9630    -3.0370     0.4330 n8         1 56P      -0.887800
     44 H4          -5.1130    -0.0840     0.5900 hc         1 56P       0.041700
     45 H20         -4.8160    -0.7950    -0.9820 hc         1 56P       0.041700
     46 H21         -5.3240    -3.0600    -0.0690 hc         1 56P       0.044200
     47 H22         -5.6050    -2.3710     1.5190 hc         1 56P       0.044200
     48 H23         -7.4820    -1.0280     0.6400 h1         1 56P       0.027200
     49 H24         -7.1810    -1.6250    -0.9810 h1         1 56P       0.027200
     50 H25         -8.9290    -2.8250     0.2170 hn         1 56P       0.336300
     51 H26         -7.7200    -3.8230    -0.1580 hn         1 56P       0.336300
@<TRIPOS>BOND
     1     1     2 1   
     2     1     5 1   
     3     1    14 1   
     4     1    22 1   
     5     2    15 1   
     6     2    16 2   
     7     3    12 1   
     8     3    23 1   
     9     3    24 1   
    10     3    40 1   
    11     4    15 1   
    12     4    25 1   
    13     5    13 1   
    14     5    17 1   
    15     6     7 ar  
    16     6    11 ar  
    17     6    17 1   
    18     7     8 ar  
    19     7    26 1   
    20     8     9 ar  
    21     8    21 1   
    22     9    10 ar  
    23     9    20 1   
    24    10    11 ar  
    25    10    27 1   
    26    11    28 1   
    27    12    13 1   
    28    12    29 1   
    29    12    30 1   
    30    13    31 1   
    31    13    32 1   
    32    14    33 1   
    33    14    34 1   
    34    14    35 1   
    35    15    36 1   
    36    17    18 2   
    37    17    19 2   
    38    21    37 1   
    39    21    38 1   
    40    21    39 1   
    41    40    41 1   
    42    40    44 1   
    43    40    45 1   
    44    41    42 1   
    45    41    46 1   
    46    41    47 1   
    47    42    43 1   
    48    42    48 1   
    49    42    49 1   
    50    43    50 1   
    51    43    51 1   
@<TRIPOS>SUBSTRUCTURE
     1 56P         1 TEMP              0 ****  ****    0 ROOT
