@<TRIPOS>MOLECULE
56P
   51    51     1     0     0
SMALL
No Charge or Current Charge


@<TRIPOS>ATOM
      1 C1          -0.0870     3.0020     1.2630 c3         1 56P       0.176500
      2 C2          -1.0340     3.7320     0.2380 c          1 56P       0.591100
      3 C20         -2.4840    -1.0690     0.8720 c3         1 56P      -0.071400
      4 O5          -1.1020     5.2640    -1.7080 oh         1 56P      -0.419100
      5 N6           0.3930     1.6100     0.9410 n3         1 56P      -0.783500
      6 C10          1.8430    -0.2430    -0.4810 ca         1 56P      -0.306500
      7 C11          2.8800    -0.6220     0.3950 ca         1 56P       0.004000
      8 C12          3.3130    -1.9620     0.4450 ca         1 56P      -0.135300
      9 C13          2.6950    -2.9140    -0.3910 ca         1 56P       0.220000
     10 C14          1.6620    -2.5390    -1.2620 ca         1 56P      -0.171000
     11 C15          1.2310    -1.2040    -1.3110 ca         1 56P       0.008000
     12 C19         -1.7700     0.2570     0.5280 c3         1 56P      -0.097400
     13 C18         -0.4630     0.4530     1.3280 c3         1 56P       0.243800
     14 C28         -0.6280     3.1430     2.7060 c3         1 56P      -0.095100
     15 N4          -0.4040     4.6660    -0.5870 ns         1 56P      -0.372400
     16 O3          -2.2480     3.5580     0.1950 o          1 56P      -0.551100
     17 S7           1.2840     1.4690    -0.5100 sy         1 56P       1.195600
     18 O8           0.3510     1.6720    -1.6210 o          1 56P      -0.534500
     19 O9           2.4680     2.3130    -0.3210 o          1 56P      -0.534500
     20 F16          3.0930    -4.2060    -0.3590 f          1 56P      -0.171000
     21 C17          4.4320    -2.3730     1.3950 c3         1 56P      -0.043800
     22 H1           0.8140     3.6290     1.2720 h1         1 56P       0.053700
     23 H2          -1.8050    -1.9070     0.6660 hc         1 56P       0.035200
     24 H3          -2.7050    -1.0910     1.9470 hc         1 56P       0.035200
     25 H5          -0.9360     6.2300    -1.5970 ho         1 56P       0.443000
     26 H6           3.3430     0.1210     1.0430 ha         1 56P       0.131000
     27 H7           1.1950    -3.2860    -1.8980 ha         1 56P       0.139000
     28 H8           0.4240    -0.9260    -1.9880 ha         1 56P       0.142000
     29 H9          -1.5600     0.2730    -0.5470 hc         1 56P       0.065200
     30 H10         -2.4520     1.0850     0.7410 hc         1 56P       0.065200
     31 H11          0.1130    -0.4780     1.2700 h1         1 56P       0.045200
     32 H12         -0.7360     0.5350     2.3870 h1         1 56P       0.045200
     33 H13         -1.6000     2.6490     2.8170 hc         1 56P       0.052700
     34 H14          0.0730     2.7030     3.4260 hc         1 56P       0.052700
     35 H15         -0.7570     4.2020     2.9630 hc         1 56P       0.052700
     36 H16          0.6140     4.6940    -0.6280 hn         1 56P       0.332500
     37 H17          4.0830    -3.1270     2.1100 hc         1 56P       0.050367
     38 H18          5.2780    -2.8010     0.8430 hc         1 56P       0.050367
     39 H19          4.8130    -1.5220     1.9720 hc         1 56P       0.050367
     40 C21         -3.7940    -1.2730     0.0800 c3         1 56P      -0.074400
     41 C22         -4.5080    -2.6000     0.4220 c3         1 56P      -0.078400
     42 C23         -5.8160    -2.7970    -0.3720 c3         1 56P       0.149800
     43 N24         -6.4750    -4.0690    -0.0230 n8         1 56P      -0.998200
     44 H4          -4.4730    -0.4360     0.2840 hc         1 56P       0.041700
     45 H20         -3.5730    -1.2500    -0.9950 hc         1 56P       0.041700
     46 H21         -3.8290    -3.4360     0.2160 hc         1 56P       0.044200
     47 H22         -4.7310    -2.6210     1.4960 hc         1 56P       0.044200
     48 H23         -6.5080    -1.9720    -0.1570 h1         1 56P       0.027200
     49 H24         -5.5990    -2.7970    -1.4500 h1         1 56P       0.027200
     50 H25         -7.3040    -4.1900    -0.6180 hn         1 56P       0.391500
     51 H26         -5.8650    -4.8480    -0.2990 hn         1 56P       0.391500
@<TRIPOS>BOND
     1     1     2 1   
     2     1     5 1   
     3     1    14 1   
     4     1    22 1   
     5     2    15 1   
     6     2    16 2   
     7     3    12 1   
     8     3    23 1   
     9     3    24 1   
    10     3    40 1   
    11     4    15 1   
    12     4    25 1   
    13     5    13 1   
    14     5    17 1   
    15     6     7 ar  
    16     6    11 ar  
    17     6    17 1   
    18     7     8 ar  
    19     7    26 1   
    20     8     9 ar  
    21     8    21 1   
    22     9    10 ar  
    23     9    20 1   
    24    10    11 ar  
    25    10    27 1   
    26    11    28 1   
    27    12    13 1   
    28    12    29 1   
    29    12    30 1   
    30    13    31 1   
    31    13    32 1   
    32    14    33 1   
    33    14    34 1   
    34    14    35 1   
    35    15    36 1   
    36    17    18 2   
    37    17    19 2   
    38    21    37 1   
    39    21    38 1   
    40    21    39 1   
    41    40    41 1   
    42    40    44 1   
    43    40    45 1   
    44    41    42 1   
    45    41    46 1   
    46    41    47 1   
    47    42    43 1   
    48    42    48 1   
    49    42    49 1   
    50    43    50 1   
    51    43    51 1   
@<TRIPOS>SUBSTRUCTURE
     1 56P         1 TEMP              0 ****  ****    0 ROOT
