@<TRIPOS>MOLECULE
56Q
   34    34     1     0     0
SMALL
abcg2


@<TRIPOS>ATOM
      1 C1          -1.7840    -0.5090    -0.1480 c3         1 56Q       0.141500
      2 C2          -3.3190    -0.5290    -0.0870 c          1 56Q       0.596100
      3 O5          -5.1480    -1.9260     0.3190 oh         1 56Q      -0.427100
      4 N6          -1.3450     0.8740    -0.2490 n3         1 56Q      -0.726500
      5 C10          1.3250     0.6660     0.3160 ca         1 56Q      -0.322500
      6 C11          1.7060    -0.5560     0.8600 ca         1 56Q       0.002000
      7 C12          2.8620    -1.1940     0.4310 ca         1 56Q      -0.136300
      8 C13          3.6030    -0.5480    -0.5520 ca         1 56Q       0.221000
      9 C14          3.2510     0.6700    -1.0970 ca         1 56Q      -0.172000
     10 C15          2.0940     1.2910    -0.6560 ca         1 56Q       0.008000
     11 C18         -1.3990     1.5140    -1.5580 c3         1 56Q       0.192100
     12 C28         -1.2300    -1.4000    -1.2620 c3         1 56Q      -0.114100
     13 N4          -3.8190    -1.7750     0.0500 ns         1 56Q      -0.384400
     14 O3          -4.0060     0.4650    -0.1830 o          1 56Q      -0.530100
     15 S7          -0.2050     1.4060     0.8130 sy         1 56Q       1.175600
     16 O8          -0.0880     2.8410     0.6200 o          1 56Q      -0.528500
     17 O9          -0.5510     0.8800     2.1230 o          1 56Q      -0.528500
     18 F16          4.7220    -1.1410    -0.9860 f          1 56Q      -0.170000
     19 C17          3.3020    -2.5090     0.9950 c3         1 56Q      -0.043800
     20 H1          -1.4390    -0.9110     0.8070 h1         1 56Q       0.083700
     21 H2          -5.5580    -2.1890    -0.5150 ho         1 56Q       0.448000
     22 H3           1.1070    -1.0250     1.6300 ha         1 56Q       0.135000
     23 H4           3.8750     1.1320    -1.8500 ha         1 56Q       0.139000
     24 H5           1.8160     2.2510    -1.0670 ha         1 56Q       0.141000
     25 H6          -1.5060     2.5890    -1.4500 h1         1 56Q       0.054700
     26 H7          -0.5250     1.3020    -2.1790 h1         1 56Q       0.054700
     27 H8          -2.2800     1.1540    -2.0800 h1         1 56Q       0.054700
     28 H9          -1.4540    -2.4480    -1.0720 hc         1 56Q       0.050700
     29 H10         -1.6420    -1.1410    -2.2350 hc         1 56Q       0.050700
     30 H11         -0.1450    -1.3060    -1.3120 hc         1 56Q       0.050700
     31 H12         -3.2480    -2.5460     0.3680 hn         1 56Q       0.327500
     32 H13          3.3120    -3.2860     0.2290 hc         1 56Q       0.051367
     33 H14          4.3080    -2.4510     1.4120 hc         1 56Q       0.051367
     34 H15          2.6310    -2.8330     1.7870 hc         1 56Q       0.051367
@<TRIPOS>BOND
     1     1     2 1   
     2     1     4 1   
     3     1    12 1   
     4     1    20 1   
     5     2    13 1   
     6     2    14 2   
     7     3    13 1   
     8     3    21 1   
     9     4    11 1   
    10     4    15 1   
    11     5     6 ar  
    12     5    10 ar  
    13     5    15 1   
    14     6     7 ar  
    15     6    22 1   
    16     7     8 ar  
    17     7    19 1   
    18     8     9 ar  
    19     8    18 1   
    20     9    10 ar  
    21     9    23 1   
    22    10    24 1   
    23    11    25 1   
    24    11    26 1   
    25    11    27 1   
    26    12    28 1   
    27    12    29 1   
    28    12    30 1   
    29    13    31 1   
    30    15    16 2   
    31    15    17 2   
    32    19    32 1   
    33    19    33 1   
    34    19    34 1   
@<TRIPOS>SUBSTRUCTURE
     1 56Q         1 TEMP              0 ****  ****    0 ROOT
