@<TRIPOS>MOLECULE
56Q
   34    34     1     0     0
SMALL
No Charge or Current Charge


@<TRIPOS>ATOM
      1 C1          -1.6350    -0.5350    -0.5560 c3         1 56Q       0.141500
      2 C2          -3.1290    -0.9910    -0.6580 c          1 56Q       0.596100
      3 O5          -5.0980    -1.7280     0.6500 oh         1 56Q      -0.427100
      4 N6          -1.4630     0.9210    -0.2310 n3         1 56Q      -0.726500
      5 C10          1.2000     0.5330     0.3810 ca         1 56Q      -0.322500
      6 C11          1.5750    -0.7210     0.9080 ca         1 56Q       0.002000
      7 C12          2.7430    -1.3620     0.4490 ca         1 56Q      -0.136300
      8 C13          3.5300    -0.7320    -0.5360 ca         1 56Q       0.221000
      9 C14          3.1620     0.5170    -1.0560 ca         1 56Q      -0.172000
     10 C15          1.9980     1.1550    -0.6000 ca         1 56Q       0.008000
     11 C18         -1.6510     1.8680    -1.3530 c3         1 56Q       0.192100
     12 C28         -0.8290    -1.0150    -1.7940 c3         1 56Q      -0.114100
     13 N4          -3.6740    -1.4870     0.5270 ns         1 56Q      -0.384400
     14 O3          -3.7760    -0.9520    -1.7010 o          1 56Q      -0.530100
     15 S7          -0.3020     1.3420     0.9530 sy         1 56Q       1.175600
     16 O8          -0.1150     2.7930     0.8460 o          1 56Q      -0.528500
     17 O9          -0.7720     0.7380     2.2040 o          1 56Q      -0.528500
     18 F16          4.6550    -1.3300    -0.9910 f          1 56Q      -0.170000
     19 C17          3.1450    -2.7200     1.0130 c3         1 56Q      -0.043800
     20 H1          -1.2460    -1.1220     0.2870 h1         1 56Q       0.083700
     21 H2          -5.1490    -2.6310     1.0440 ho         1 56Q       0.448000
     22 H3           0.9620    -1.2010     1.6690 ha         1 56Q       0.135000
     23 H4           3.7810     0.9890    -1.8140 ha         1 56Q       0.139000
     24 H5           1.7190     2.1230    -1.0140 ha         1 56Q       0.141000
     25 H6          -1.8720     2.8800    -0.9880 h1         1 56Q       0.054700
     26 H7          -0.7500     1.9180    -1.9800 h1         1 56Q       0.054700
     27 H8          -2.4910     1.5620    -1.9890 h1         1 56Q       0.054700
     28 H9          -0.9160    -2.1030    -1.9030 hc         1 56Q       0.050700
     29 H10         -1.2050    -0.5560    -2.7160 hc         1 56Q       0.050700
     30 H11          0.2350    -0.7760    -1.7070 hc         1 56Q       0.050700
     31 H12         -3.1690    -1.3410     1.4000 hn         1 56Q       0.327500
     32 H13          3.1880    -3.4770     0.2200 hc         1 56Q       0.051367
     33 H14          4.1350    -2.6730     1.4830 hc         1 56Q       0.051367
     34 H15          2.4370    -3.0760     1.7700 hc         1 56Q       0.051367
@<TRIPOS>BOND
     1     1     2 1   
     2     1     4 1   
     3     1    12 1   
     4     1    20 1   
     5     2    13 1   
     6     2    14 2   
     7     3    13 1   
     8     3    21 1   
     9     4    11 1   
    10     4    15 1   
    11     5     6 ar  
    12     5    10 ar  
    13     5    15 1   
    14     6     7 ar  
    15     6    22 1   
    16     7     8 ar  
    17     7    19 1   
    18     8     9 ar  
    19     8    18 1   
    20     9    10 ar  
    21     9    23 1   
    22    10    24 1   
    23    11    25 1   
    24    11    26 1   
    25    11    27 1   
    26    12    28 1   
    27    12    29 1   
    28    12    30 1   
    29    13    31 1   
    30    15    16 2   
    31    15    17 2   
    32    19    32 1   
    33    19    33 1   
    34    19    34 1   
@<TRIPOS>SUBSTRUCTURE
     1 56Q         1 TEMP              0 ****  ****    0 ROOT
