@<TRIPOS>MOLECULE
56R
   49    50     1     0     0
SMALL
No Charge or Current Charge


@<TRIPOS>ATOM
      1 C1           3.2660     0.0640    -0.7800 c3         1 56R       0.159500
      2 C2           4.1820    -0.2700     0.4520 c          1 56R       0.578100
      3 C3          -3.7900    -2.2230     0.4560 c3         1 56R       0.197100
      4 O5           6.1100     0.4970     1.8020 oh         1 56R      -0.420100
      5 N6           1.7900     0.1710    -0.5160 n3         1 56R      -0.761500
      6 C10         -0.4510     1.5420     0.3450 ca         1 56R      -0.279500
      7 C11         -1.1520     1.7220    -0.8650 ca         1 56R       0.015000
      8 C12         -2.5590     1.6660    -0.8860 ca         1 56R      -0.133300
      9 C13         -3.2540     1.4410     0.3180 ca         1 56R       0.217000
     10 C14         -2.5600     1.2760     1.5260 ca         1 56R      -0.174000
     11 C15         -1.1560     1.3240     1.5450 ca         1 56R       0.016000
     12 C19         -0.2190    -1.3510    -0.6630 ca         1 56R      -0.123300
     13 C20         -0.3820    -1.2850    -2.0610 ca         1 56R      -0.092000
     14 C21         -1.6390    -1.5220    -2.6400 ca         1 56R      -0.119000
     15 C22         -2.7420    -1.8310    -1.8280 ca         1 56R      -0.100000
     16 C24         -1.3280    -1.6780     0.1450 ca         1 56R      -0.070000
     17 C23         -2.5930    -1.9110    -0.4300 ca         1 56R      -0.086300
     18 C18          1.1450    -1.0800    -0.0310 c3         1 56R       0.259100
     19 C28          3.5840    -0.8790    -1.9660 c3         1 56R      -0.093100
     20 N4           5.0410     0.7520     0.8570 ns         1 56R      -0.377400
     21 O3           4.1520    -1.3540     1.0300 o          1 56R      -0.564100
     22 S7           1.3470     1.5820     0.3410 sy         1 56R       1.171600
     23 O8           1.8590     1.4350     1.7060 o          1 56R      -0.538000
     24 O9           1.7480     2.6990    -0.5210 o          1 56R      -0.538000
     25 F16         -4.6050     1.3770     0.3220 f          1 56R      -0.176000
     26 C17         -3.3130     1.8310    -2.2000 c3         1 56R      -0.039800
     27 N5          -3.8420    -3.6520     0.8150 n8         1 56R      -0.996200
     28 H1           3.6110     1.0470    -1.1300 h1         1 56R       0.084700
     29 H2          -3.7360    -1.6270     1.3770 h1         1 56R       0.034700
     30 H3          -4.7200    -1.9550    -0.0670 h1         1 56R       0.034700
     31 H4           5.9900     1.1990     2.4850 ho         1 56R       0.450000
     32 H5          -0.6010     1.8830    -1.7900 ha         1 56R       0.124000
     33 H6          -3.1110     1.1030     2.4460 ha         1 56R       0.136000
     34 H7          -0.6280     1.1860     2.4870 ha         1 56R       0.145000
     35 H8           0.4650    -1.0370    -2.6970 ha         1 56R       0.107000
     36 H9          -1.7590    -1.4610    -3.7200 ha         1 56R       0.112000
     37 H10         -3.7140    -2.0050    -2.2850 ha         1 56R       0.110000
     38 H11         -1.2140    -1.7390     1.2250 ha         1 56R       0.148000
     39 H12          1.7650    -1.9550    -0.2640 h1         1 56R       0.075700
     40 H13          1.0550    -1.0720     1.0640 h1         1 56R       0.075700
     41 H14          2.9740    -0.6160    -2.8380 hc         1 56R       0.050700
     42 H15          4.6390    -0.7860    -2.2520 hc         1 56R       0.050700
     43 H16          3.3980    -1.9290    -1.7160 hc         1 56R       0.050700
     44 H17          5.1400     1.5890     0.2840 hn         1 56R       0.338500
     45 H18         -3.9870     0.9840    -2.3750 hc         1 56R       0.047700
     46 H19         -3.9180     2.7450    -2.1920 hc         1 56R       0.047700
     47 H20         -2.6320     1.8900    -3.0570 hc         1 56R       0.047700
     48 H21         -4.7120    -3.8350     1.3290 hn         1 56R       0.398000
     49 H22         -3.9460    -4.2010    -0.0460 hn         1 56R       0.398000
@<TRIPOS>BOND
     1     1     2 1   
     2     1     5 1   
     3     1    19 1   
     4     1    28 1   
     5     2    20 1   
     6     2    21 2   
     7     3    17 1   
     8     3    27 1   
     9     3    29 1   
    10     3    30 1   
    11     4    20 1   
    12     4    31 1   
    13     5    18 1   
    14     5    22 1   
    15     6     7 ar  
    16     6    11 ar  
    17     6    22 1   
    18     7     8 ar  
    19     7    32 1   
    20     8     9 ar  
    21     8    26 1   
    22     9    10 ar  
    23     9    25 1   
    24    10    11 ar  
    25    10    33 1   
    26    11    34 1   
    27    12    13 ar  
    28    12    16 ar  
    29    12    18 1   
    30    13    14 ar  
    31    13    35 1   
    32    14    15 ar  
    33    14    36 1   
    34    15    17 ar  
    35    15    37 1   
    36    16    17 ar  
    37    16    38 1   
    38    18    39 1   
    39    18    40 1   
    40    19    41 1   
    41    19    42 1   
    42    19    43 1   
    43    20    44 1   
    44    22    23 2   
    45    22    24 2   
    46    26    45 1   
    47    26    46 1   
    48    26    47 1   
    49    27    48 1   
    50    27    49 1   
@<TRIPOS>SUBSTRUCTURE
     1 56R         1 TEMP              0 ****  ****    0 ROOT
