@<TRIPOS>MOLECULE
56R
   49    50     1     0     0
SMALL
abcg2


@<TRIPOS>ATOM
      1 C1           2.8660     0.3340    -0.6300 c3         1 56R       0.159500
      2 C2           4.0020     0.0690     0.3590 c          1 56R       0.578100
      3 C3          -3.7010    -2.2870     0.5590 c3         1 56R       0.197100
      4 O5           6.2000     0.6940     0.8820 oh         1 56R      -0.420100
      5 N6           1.5990    -0.1790    -0.1150 n3         1 56R      -0.761500
      6 C10         -0.6710     1.0770     0.6650 ca         1 56R      -0.279500
      7 C11         -0.9000     1.4520    -0.6510 ca         1 56R       0.015000
      8 C12         -2.1680     1.8250    -1.0700 ca         1 56R      -0.133300
      9 C13         -3.1660     1.8350    -0.1040 ca         1 56R       0.217000
     10 C14         -2.9560     1.4880     1.2150 ca         1 56R      -0.174000
     11 C15         -1.6870     1.0940     1.6070 ca         1 56R       0.016000
     12 C19         -0.1830    -1.7380    -0.7870 ca         1 56R      -0.123300
     13 C20         -0.4460    -1.5140    -2.1360 ca         1 56R      -0.092000
     14 C21         -1.7470    -1.5580    -2.6100 ca         1 56R      -0.119000
     15 C22         -2.7950    -1.8230    -1.7390 ca         1 56R      -0.100000
     16 C24         -1.2380    -2.0210     0.0700 ca         1 56R      -0.070000
     17 C23         -2.5530    -2.0570    -0.3900 ca         1 56R      -0.086300
     18 C18          1.2200    -1.5940    -0.2570 c3         1 56R       0.259100
     19 C28          3.2200    -0.2420    -2.0000 c3         1 56R      -0.093100
     20 N4           5.0310     0.9180     0.2230 ns         1 56R      -0.377400
     21 O3           3.9620    -0.8330     1.1750 o          1 56R      -0.564100
     22 S7           0.9580     0.6190     1.1860 sy         1 56R       1.171600
     23 O8           0.8030    -0.2750     2.3250 o          1 56R      -0.538000
     24 O9           1.7430     1.8330     1.3670 o          1 56R      -0.538000
     25 F16         -4.4020     2.1910    -0.4800 f          1 56R      -0.176000
     26 C17         -2.4620     2.1780    -2.4940 c3         1 56R      -0.039800
     27 N5          -3.3570    -3.2000     1.6340 n8         1 56R      -0.996200
     28 H1           2.7520     1.4090    -0.7700 h1         1 56R       0.084700
     29 H2          -3.9620    -1.3250     1.0110 h1         1 56R       0.034700
     30 H3          -4.5810    -2.5940    -0.0210 h1         1 56R       0.034700
     31 H4           6.1650     1.2310     1.6840 ho         1 56R       0.450000
     32 H5          -0.0990     1.4140    -1.3770 ha         1 56R       0.124000
     33 H6          -3.7720     1.5090     1.9240 ha         1 56R       0.136000
     34 H7          -1.5140     0.7930     2.6310 ha         1 56R       0.145000
     35 H8           0.3670    -1.3010    -2.8190 ha         1 56R       0.107000
     36 H9          -1.9460    -1.3870    -3.6600 ha         1 56R       0.112000
     37 H10         -3.8120    -1.8540    -2.1140 ha         1 56R       0.110000
     38 H11         -1.0480    -2.2050     1.1200 ha         1 56R       0.148000
     39 H12          1.9210    -2.0480    -0.9520 h1         1 56R       0.075700
     40 H13          1.3400    -2.1270     0.6860 h1         1 56R       0.075700
     41 H14          2.3670    -0.1750    -2.6740 hc         1 56R       0.050700
     42 H15          4.0280     0.3440    -2.4350 hc         1 56R       0.050700
     43 H16          3.5540    -1.2780    -1.9560 hc         1 56R       0.050700
     44 H17          5.0790     1.6140    -0.5070 hn         1 56R       0.338500
     45 H18         -3.2280     1.5240    -2.9130 hc         1 56R       0.047700
     46 H19         -2.8180     3.2040    -2.5910 hc         1 56R       0.047700
     47 H20         -1.5690     2.0750    -3.1070 hc         1 56R       0.047700
     48 H21         -4.1110    -3.2200     2.3090 hn         1 56R       0.398000
     49 H22         -3.2850    -4.1410     1.2690 hn         1 56R       0.398000
@<TRIPOS>BOND
     1     1     2 1   
     2     1     5 1   
     3     1    19 1   
     4     1    28 1   
     5     2    20 1   
     6     2    21 2   
     7     3    17 1   
     8     3    27 1   
     9     3    29 1   
    10     3    30 1   
    11     4    20 1   
    12     4    31 1   
    13     5    18 1   
    14     5    22 1   
    15     6     7 ar  
    16     6    11 ar  
    17     6    22 1   
    18     7     8 ar  
    19     7    32 1   
    20     8     9 ar  
    21     8    26 1   
    22     9    10 ar  
    23     9    25 1   
    24    10    11 ar  
    25    10    33 1   
    26    11    34 1   
    27    12    13 ar  
    28    12    16 ar  
    29    12    18 1   
    30    13    14 ar  
    31    13    35 1   
    32    14    15 ar  
    33    14    36 1   
    34    15    17 ar  
    35    15    37 1   
    36    16    17 ar  
    37    16    38 1   
    38    18    39 1   
    39    18    40 1   
    40    19    41 1   
    41    19    42 1   
    42    19    43 1   
    43    20    44 1   
    44    22    23 2   
    45    22    24 2   
    46    26    45 1   
    47    26    46 1   
    48    26    47 1   
    49    27    48 1   
    50    27    49 1   
@<TRIPOS>SUBSTRUCTURE
     1 56R         1 TEMP              0 ****  ****    0 ROOT
