@<TRIPOS>MOLECULE
56S
   47    46     1     0     0
SMALL
bcc


@<TRIPOS>ATOM
      1 C10         -1.8120     0.3080    -0.2090 c3         1 56S      -0.068400
      2 C15         -6.7250     0.0370    -0.1490 c3         1 56S       0.158100
      3 C17         -7.0950     1.0250     0.9420 c3         1 56S      -0.105100
      4 C01          9.6340    -0.2850     0.1580 c3         1 56S      -0.088100
      5 C02          8.3540     0.5140    -0.0440 c3         1 56S      -0.074400
      6 C03          7.0970    -0.3340     0.1070 c3         1 56S      -0.075400
      7 C04          5.8090     0.4560    -0.0840 c3         1 56S      -0.074400
      8 C05          4.5530    -0.3910     0.0770 c3         1 56S      -0.074400
      9 C06          3.2650     0.3990    -0.1160 c3         1 56S      -0.074400
     10 C07          2.0080    -0.4460     0.0450 c3         1 56S      -0.074400
     11 C08          0.7230     0.3470    -0.1540 c3         1 56S      -0.074400
     12 C09         -0.5360    -0.4930     0.0140 c3         1 56S      -0.075400
     13 C11         -3.0620    -0.5370    -0.0190 c3         1 56S      -0.138400
     14 C12         -4.3420     0.2090    -0.2880 c          1 56S       0.645100
     15 O13         -4.4070     1.3020    -0.7960 o          1 56S      -0.543000
     16 O14         -5.4030    -0.4970     0.0830 os         1 56S      -0.435900
     17 C16         -7.6630    -1.1520    -0.1890 c3         1 56S      -0.105100
     18 H102        -1.8330     1.1560     0.4830 hc         1 56S       0.053700
     19 H101        -1.8010     0.7320    -1.2160 hc         1 56S       0.053700
     20 H151        -6.7350     0.5400    -1.1190 h1         1 56S       0.060700
     21 H172        -6.4070     1.8680     0.9830 hc         1 56S       0.046533
     22 H173        -8.0920     1.4220     0.7500 hc         1 56S       0.046533
     23 H171        -7.1110     0.5400     1.9200 hc         1 56S       0.046533
     24 H011        10.5210     0.3430     0.0580 hc         1 56S       0.031367
     25 H012         9.6620    -0.7380     1.1510 hc         1 56S       0.031367
     26 H013         9.7170    -1.0920    -0.5720 hc         1 56S       0.031367
     27 H022         8.3220     1.3400     0.6740 hc         1 56S       0.036700
     28 H021         8.3620     0.9770    -1.0360 hc         1 56S       0.036700
     29 H031         7.1280    -1.1590    -0.6140 hc         1 56S       0.036700
     30 H032         7.0930    -0.8000     1.0990 hc         1 56S       0.036700
     31 H042         5.7820     1.2830     0.6340 hc         1 56S       0.037200
     32 H041         5.8110     0.9190    -1.0770 hc         1 56S       0.037200
     33 H052         4.5800    -1.2200    -0.6390 hc         1 56S       0.036700
     34 H051         4.5510    -0.8500     1.0720 hc         1 56S       0.036700
     35 H062         3.2390     1.2280     0.6000 hc         1 56S       0.037700
     36 H061         3.2680     0.8600    -1.1110 hc         1 56S       0.037700
     37 H071         2.0350    -1.2770    -0.6690 hc         1 56S       0.036700
     38 H072         2.0030    -0.9030     1.0410 hc         1 56S       0.036700
     39 H081         0.6990     1.1810     0.5550 hc         1 56S       0.040200
     40 H082         0.7270     0.7980    -1.1530 hc         1 56S       0.040200
     41 H091        -0.5480    -0.9360     1.0160 hc         1 56S       0.037200
     42 H092        -0.5100    -1.3340    -0.6890 hc         1 56S       0.037200
     43 H112        -3.0410    -1.4020    -0.6910 hc         1 56S       0.069200
     44 H111        -3.0990    -0.9530     0.9920 hc         1 56S       0.069200
     45 H162        -8.6780    -0.8080    -0.3890 hc         1 56S       0.046533
     46 H161        -7.3890    -1.8550    -0.9750 hc         1 56S       0.046533
     47 H163        -7.6730    -1.6830     0.7640 hc         1 56S       0.046533
@<TRIPOS>BOND
     1     1    12 1   
     2     1    13 1   
     3     1    18 1   
     4     1    19 1   
     5     2     3 1   
     6     2    16 1   
     7     2    17 1   
     8     2    20 1   
     9     3    21 1   
    10     3    22 1   
    11     3    23 1   
    12     4     5 1   
    13     4    24 1   
    14     4    25 1   
    15     4    26 1   
    16     5     6 1   
    17     5    27 1   
    18     5    28 1   
    19     6     7 1   
    20     6    29 1   
    21     6    30 1   
    22     7     8 1   
    23     7    31 1   
    24     7    32 1   
    25     8     9 1   
    26     8    33 1   
    27     8    34 1   
    28     9    10 1   
    29     9    35 1   
    30     9    36 1   
    31    10    11 1   
    32    10    37 1   
    33    10    38 1   
    34    11    12 1   
    35    11    39 1   
    36    11    40 1   
    37    12    41 1   
    38    12    42 1   
    39    13    14 1   
    40    13    43 1   
    41    13    44 1   
    42    14    15 2   
    43    14    16 1   
    44    17    45 1   
    45    17    46 1   
    46    17    47 1   
@<TRIPOS>SUBSTRUCTURE
     1 56S         1 TEMP              0 ****  ****    0 ROOT
