@<TRIPOS>MOLECULE
56S
   47    46     1     0     0
SMALL
No Charge or Current Charge


@<TRIPOS>ATOM
      1 C10         -2.0440    -0.1110    -0.7910 c3         1 56S      -0.068400
      2 C15         -6.4390     0.1360     0.3330 c3         1 56S       0.181300
      3 C17         -6.1380     1.5970     0.7390 c3         1 56S      -0.105100
      4 C01          9.4890    -0.0170     0.6320 c3         1 56S      -0.088100
      5 C02          8.1220     0.6910     0.6910 c3         1 56S      -0.074400
      6 C03          6.9510    -0.2190     0.2620 c3         1 56S      -0.075400
      7 C04          5.5800     0.4910     0.3210 c3         1 56S      -0.074400
      8 C05          4.4090    -0.4200    -0.1090 c3         1 56S      -0.074400
      9 C06          3.0390     0.2900    -0.0500 c3         1 56S      -0.074400
     10 C07          1.8680    -0.6200    -0.4800 c3         1 56S      -0.074400
     11 C08          0.4970     0.0890    -0.4210 c3         1 56S      -0.074400
     12 C09         -0.6740    -0.8210    -0.8510 c3         1 56S      -0.075400
     13 C11         -3.2170    -1.0230    -1.2220 c3         1 56S      -0.138400
     14 C12         -4.5530    -0.2820    -1.1350 c          1 56S       0.596100
     15 O13         -4.9910     0.4270    -2.0310 o          1 56S      -0.494000
     16 O14         -5.1940    -0.5290     0.0530 os         1 56S      -0.459100
     17 C16         -7.1160    -0.6570     1.4660 c3         1 56S      -0.105100
     18 H102        -2.2220     0.2460     0.2310 hc         1 56S       0.053700
     19 H101        -2.0200     0.7750    -1.4390 hc         1 56S       0.053700
     20 H151        -7.1030     0.1230    -0.5430 h1         1 56S       0.060700
     21 H172        -5.7060     2.1600    -0.0960 hc         1 56S       0.046533
     22 H173        -7.0600     2.1050     1.0420 hc         1 56S       0.046533
     23 H171        -5.4360     1.6300     1.5800 hc         1 56S       0.046533
     24 H011        10.2880     0.6660     0.9450 hc         1 56S       0.031367
     25 H012         9.5040    -0.8890     1.2980 hc         1 56S       0.031367
     26 H013         9.7080    -0.3560    -0.3880 hc         1 56S       0.031367
     27 H022         7.9490     1.0480     1.7140 hc         1 56S       0.036700
     28 H021         8.1510     1.5760     0.0440 hc         1 56S       0.036700
     29 H031         7.1280    -0.5760    -0.7610 hc         1 56S       0.036700
     30 H032         6.9260    -1.1040     0.9100 hc         1 56S       0.036700
     31 H042         5.4030     0.8470     1.3430 hc         1 56S       0.037200
     32 H041         5.6050     1.3750    -0.3280 hc         1 56S       0.037200
     33 H052         4.5860    -0.7770    -1.1310 hc         1 56S       0.036700
     34 H051         4.3840    -1.3050     0.5400 hc         1 56S       0.036700
     35 H062         2.8610     0.6470     0.9720 hc         1 56S       0.037700
     36 H061         3.0640     1.1750    -0.6990 hc         1 56S       0.037700
     37 H071         2.0450    -0.9770    -1.5020 hc         1 56S       0.036700
     38 H072         1.8430    -1.5050     0.1690 hc         1 56S       0.036700
     39 H081         0.3200     0.4460     0.6010 hc         1 56S       0.040200
     40 H082         0.5220     0.9740    -1.0690 hc         1 56S       0.040200
     41 H091        -0.6980    -1.7060    -0.2020 hc         1 56S       0.037200
     42 H092        -0.4960    -1.1780    -1.8730 hc         1 56S       0.037200
     43 H112        -3.0550    -1.3560    -2.2530 hc         1 56S       0.069200
     44 H111        -3.2360    -1.8790    -0.5370 hc         1 56S       0.069200
     45 H162        -8.0770    -0.2010     1.7330 hc         1 56S       0.046533
     46 H161        -7.3060    -1.6900     1.1510 hc         1 56S       0.046533
     47 H163        -6.4830    -0.6770     2.3620 hc         1 56S       0.046533
@<TRIPOS>BOND
     1     1    12 1   
     2     1    13 1   
     3     1    18 1   
     4     1    19 1   
     5     2     3 1   
     6     2    16 1   
     7     2    17 1   
     8     2    20 1   
     9     3    21 1   
    10     3    22 1   
    11     3    23 1   
    12     4     5 1   
    13     4    24 1   
    14     4    25 1   
    15     4    26 1   
    16     5     6 1   
    17     5    27 1   
    18     5    28 1   
    19     6     7 1   
    20     6    29 1   
    21     6    30 1   
    22     7     8 1   
    23     7    31 1   
    24     7    32 1   
    25     8     9 1   
    26     8    33 1   
    27     8    34 1   
    28     9    10 1   
    29     9    35 1   
    30     9    36 1   
    31    10    11 1   
    32    10    37 1   
    33    10    38 1   
    34    11    12 1   
    35    11    39 1   
    36    11    40 1   
    37    12    41 1   
    38    12    42 1   
    39    13    14 1   
    40    13    43 1   
    41    13    44 1   
    42    14    15 2   
    43    14    16 1   
    44    17    45 1   
    45    17    46 1   
    46    17    47 1   
@<TRIPOS>SUBSTRUCTURE
     1 56S         1 TEMP              0 ****  ****    0 ROOT
