@<TRIPOS>MOLECULE
56T
   17    17     1     0     0
SMALL
No Charge or Current Charge


@<TRIPOS>ATOM
      1 C1           5.9110   -15.7540    -2.6300 cc         1 56T      -0.175000
      2 C2           6.4720   -15.6490    -1.3870 cd         1 56T       0.130300
      3 C4           7.8850   -14.7420    -2.7740 cd         1 56T       0.121900
      4 C5           6.8230   -15.1660    -3.5260 cc         1 56T      -0.184000
      5 C6           5.9540   -16.1180    -0.0540 c3         1 56T      -0.105700
      6 C7           5.5080   -14.9670     0.8690 c3         1 56T       0.154800
      7 N8           4.3230   -14.2670     0.3390 n8         1 56T      -1.006200
      8 O3           7.7010   -15.0300    -1.4400 os         1 56T      -0.265000
      9 H1           4.9550   -16.2010    -2.8860 ha         1 56T       0.143000
     10 H2           8.8010   -14.2410    -3.0600 h4         1 56T       0.050100
     11 H3           6.7000   -15.0730    -4.6010 ha         1 56T       0.141000
     12 H4           5.1180   -16.8130    -0.1960 hc         1 56T       0.066200
     13 H5           6.7390   -16.6870     0.4580 hc         1 56T       0.066200
     14 H6           5.2600   -15.3710     1.8610 h1         1 56T       0.034700
     15 H7           6.3300   -14.2460     0.9870 h1         1 56T       0.034700
     16 H8           4.1100   -13.4640     0.9440 hn         1 56T       0.397000
     17 H9           4.5710   -13.8330    -0.5580 hn         1 56T       0.397000
@<TRIPOS>BOND
     1     1     2 2   
     2     1     4 1   
     3     1     9 1   
     4     2     5 1   
     5     2     8 1   
     6     3     4 2   
     7     3     8 1   
     8     3    10 1   
     9     4    11 1   
    10     5     6 1   
    11     5    12 1   
    12     5    13 1   
    13     6     7 1   
    14     6    14 1   
    15     6    15 1   
    16     7    16 1   
    17     7    17 1   
@<TRIPOS>SUBSTRUCTURE
     1 56T         1 TEMP              0 ****  ****    0 ROOT
