@<TRIPOS>MOLECULE
56T
   17    17     1     0     0
SMALL
abcg2


@<TRIPOS>ATOM
      1 C1           5.8930   -15.7970    -2.6330 cc         1 56T      -0.175000
      2 C2           6.4200   -15.7030    -1.3830 cd         1 56T       0.130300
      3 C4           7.8360   -14.7060    -2.7570 cd         1 56T       0.121900
      4 C5           6.8130   -15.1510    -3.5250 cc         1 56T      -0.184000
      5 C6           5.9530   -16.1270    -0.0380 c3         1 56T      -0.105700
      6 C7           5.5380   -14.9520     0.8560 c3         1 56T       0.154800
      7 N8           4.3880   -14.2420     0.2850 n8         1 56T      -1.006200
      8 O3           7.6160   -15.0320    -1.4470 os         1 56T      -0.265000
      9 H1           4.9590   -16.2710    -2.8880 ha         1 56T       0.143000
     10 H2           8.7470   -14.1720    -2.9660 h4         1 56T       0.050100
     11 H3           6.7190   -15.0380    -4.5930 ha         1 56T       0.141000
     12 H4           5.1030   -16.7970    -0.1710 hc         1 56T       0.066200
     13 H5           6.7450   -16.6890     0.4670 hc         1 56T       0.066200
     14 H6           5.2450   -15.3470     1.8310 h1         1 56T       0.034700
     15 H7           6.4080   -14.3030     1.0160 h1         1 56T       0.034700
     16 H8           4.1250   -13.4730     0.8930 hn         1 56T       0.397000
     17 H9           4.6520   -13.8220    -0.6020 hn         1 56T       0.397000
@<TRIPOS>BOND
     1     1     2 2   
     2     1     4 1   
     3     1     9 1   
     4     2     5 1   
     5     2     8 1   
     6     3     4 2   
     7     3     8 1   
     8     3    10 1   
     9     4    11 1   
    10     5     6 1   
    11     5    12 1   
    12     5    13 1   
    13     6     7 1   
    14     6    14 1   
    15     6    15 1   
    16     7    16 1   
    17     7    17 1   
@<TRIPOS>SUBSTRUCTURE
     1 56T         1 TEMP              0 ****  ****    0 ROOT
