@<TRIPOS>MOLECULE
56U
   18    19     1     0     0
SMALL
No Charge or Current Charge


@<TRIPOS>ATOM
      1 C1           2.1850    -1.3460    -0.3810 ca         1 56U      -0.117000
      2 C2           1.0160    -0.6300    -0.0980 ca         1 56U      -0.071200
      3 C3           1.0170     0.6910     0.2490 ca         1 56U       0.060400
      4 C4           2.2210     1.4040     0.3390 ca         1 56U      -0.040000
      5 C5           3.4270     0.7210     0.0610 ca         1 56U      -0.135000
      6 F12         -3.1460    -0.2930    -0.8020 f          1 56U      -0.107500
      7 F11         -2.9760    -0.8450     1.2960 f          1 56U      -0.107500
      8 C8          -1.0560     0.0740     0.2540 cc         1 56U       0.320800
      9 N7          -0.2830    -1.0340    -0.0990 na         1 56U      -0.296600
     10 N9          -0.2760     1.1550     0.4750 nd         1 56U      -0.532100
     11 C6           3.4090    -0.6490    -0.2970 ca         1 56U      -0.085000
     12 H1           2.1530    -2.3980    -0.6550 ha         1 56U       0.120000
     13 H2           2.2240     2.4560     0.6150 ha         1 56U       0.132000
     14 H3           4.3750     1.2510     0.1240 ha         1 56U       0.117000
     15 H4          -2.9310     1.0430     0.6610 h2         1 56U       0.077700
     16 H5          -0.6350    -1.9590    -0.3140 hn         1 56U       0.368000
     17 H7           4.3430    -1.1670    -0.5090 ha         1 56U       0.115000
     18 C10         -2.5640     0.0540     0.3710 c3         1 56U       0.182000
@<TRIPOS>BOND
     1     1     2 ar  
     2     1    11 ar  
     3     1    12 1   
     4     2     3 ar  
     5     2     9 1   
     6     3     4 ar  
     7     3    10 1   
     8     4     5 ar  
     9     4    13 1   
    10     5    11 ar  
    11     5    14 1   
    12     6    18 1   
    13     7    18 1   
    14     8     9 1   
    15     8    10 2   
    16     8    18 1   
    17     9    16 1   
    18    11    17 1   
    19    15    18 1   
@<TRIPOS>SUBSTRUCTURE
     1 56U         1 TEMP              0 ****  ****    0 ROOT
