@<TRIPOS>MOLECULE
56U
   18    19     1     0     0
SMALL
bcc


@<TRIPOS>ATOM
      1 C1           2.2180    -1.3990    -0.0430 ca         1 56U      -0.135000
      2 C2           1.0270    -0.6860     0.0500 ca         1 56U      -0.071200
      3 C3           0.9830     0.7180     0.0520 ca         1 56U       0.060400
      4 C4           2.1670     1.4520    -0.0390 ca         1 56U      -0.058000
      5 C5           3.3540     0.7520    -0.1290 ca         1 56U      -0.153000
      6 F12         -3.0530     1.1060    -0.2250 f          1 56U      -0.228800
      7 F11         -3.0080    -1.0870    -0.2300 f          1 56U      -0.228800
      8 C8          -1.0230     0.0560     0.2020 cc         1 56U       0.320800
      9 N7          -0.2810    -1.0760     0.1500 na         1 56U      -0.246300
     10 N9          -0.3190     1.1480     0.1520 nd         1 56U      -0.532100
     11 C6           3.3780    -0.6530    -0.1320 ca         1 56U      -0.103000
     12 H1           2.2390    -2.4800    -0.0460 ha         1 56U       0.138000
     13 H2           2.1500     2.5340    -0.0390 ha         1 56U       0.150000
     14 H3           4.2880     1.2940    -0.2020 ha         1 56U       0.135000
     15 H4          -2.8150     0.0130     1.4230 h2         1 56U       0.077700
     16 H5          -0.6220    -2.0250     0.1780 hn         1 56U       0.317700
     17 H7           4.3300    -1.1630    -0.2060 ha         1 56U       0.133000
     18 C10         -2.5080     0.0240     0.3750 c3         1 56U       0.424600
@<TRIPOS>BOND
     1     1     2 ar  
     2     1    11 ar  
     3     1    12 1   
     4     2     3 ar  
     5     2     9 1   
     6     3     4 ar  
     7     3    10 1   
     8     4     5 ar  
     9     4    13 1   
    10     5    11 ar  
    11     5    14 1   
    12     6    18 1   
    13     7    18 1   
    14     8     9 1   
    15     8    10 2   
    16     8    18 1   
    17     9    16 1   
    18    11    17 1   
    19    15    18 1   
@<TRIPOS>SUBSTRUCTURE
     1 56U         1 TEMP              0 ****  ****    0 ROOT
