@<TRIPOS>MOLECULE
56X
   43    44     1     0     0
SMALL
bcc


@<TRIPOS>ATOM
      1 C10          3.4560     1.4640    70.6470 cy         1 56X      -0.227700
      2 C13          2.6850     2.7700    70.4840 c3         1 56X       0.171100
      3 C15          6.2690     0.3990    72.0880 ce         1 56X       0.020400
      4 C17          2.4460     3.0920    69.0220 c3         1 56X      -0.089100
      5 C20          8.6040    -2.7720    73.0290 c          1 56X       0.699100
      6 C21         10.8250    -2.8690    72.1620 c3         1 56X       0.158100
      7 C22         11.3310    -4.2900    72.3200 c3         1 56X      -0.102600
      8 C09          4.0260     1.1570    72.0510 cy         1 56X       0.029700
      9 C11          4.0460    -0.2570    72.6620 c5         1 56X      -0.016500
     10 C12          4.9180     1.4460    70.1980 c          1 56X       0.715500
     11 C14          5.5480    -0.4880    72.7970 c2         1 56X      -0.135600
     12 C16          3.3920    -1.3560    71.8300 c3         1 56X      -0.083100
     13 C18          7.7600     0.5720    71.9270 c          1 56X       0.934800
     14 C19          7.1540    -2.7850    72.6170 c3         1 56X      -0.052300
     15 C23         11.4160    -2.1670    70.9570 c3         1 56X      -0.102600
     16 N8           5.3730     1.3220    71.4960 nj         1 56X      -0.331000
     17 O2           5.4830     1.4840    69.1380 o          1 56X      -0.552500
     18 O3           1.4260     2.6780    71.1170 oh         1 56X      -0.609800
     19 O4           8.4760    -0.1530    72.6410 o          1 56X      -0.791800
     20 O5           8.1180     1.4390    71.1150 o          1 56X      -0.791800
     21 O6           9.3950    -2.8770    71.9730 os         1 56X      -0.416900
     22 O7           8.9760    -2.7810    74.1740 o          1 56X      -0.548000
     23 S1           6.0830    -1.8550    73.7460 ss         1 56X      -0.215700
     24 H1           2.8900     0.6430    70.1970 hc         1 56X       0.087700
     25 H2           3.2800     3.5790    70.9300 h1         1 56X       0.040700
     26 H4           1.8990     4.0290    68.9180 hc         1 56X       0.044033
     27 H5           3.3900     3.1950    68.4890 hc         1 56X       0.044033
     28 H6           1.8700     2.3030    68.5350 hc         1 56X       0.044033
     29 H7          11.0590    -2.2970    73.0620 h1         1 56X       0.074700
     30 H8          10.8970    -4.7800    73.1910 hc         1 56X       0.038367
     31 H9          11.1060    -4.8890    71.4360 hc         1 56X       0.038367
     32 H10         12.4140    -4.2810    72.4510 hc         1 56X       0.038367
     33 H11          3.7970     1.9080    72.8120 h1         1 56X       0.066700
     34 H14          2.3250    -1.1680    71.7060 hc         1 56X       0.031700
     35 H15          3.8420    -1.4370    70.8390 hc         1 56X       0.031700
     36 H16          3.5060    -2.3210    72.3230 hc         1 56X       0.031700
     37 H17          6.8130    -3.8240    72.6530 h1         1 56X       0.079200
     38 H18          7.0050    -2.4300    71.6000 h1         1 56X       0.079200
     39 H19         12.4990    -2.1070    71.0640 hc         1 56X       0.038367
     40 H20         11.1990    -2.7040    70.0330 hc         1 56X       0.038367
     41 H21         11.0310    -1.1510    70.8680 hc         1 56X       0.038367
     42 H22          1.5580     2.6580    72.0700 ho         1 56X       0.402000
     43 H3           3.5680    -0.2370    73.6440 hc         1 56X       0.052700
@<TRIPOS>BOND
     1     1     2 1   
     2     1     8 1   
     3     1    10 1   
     4     1    24 1   
     5     2     4 1   
     6     2    18 1   
     7     2    25 1   
     8     3    11 2   
     9     3    13 1   
    10     3    16 1   
    11     4    26 1   
    12     4    27 1   
    13     4    28 1   
    14     5    14 1   
    15     5    21 1   
    16     5    22 2   
    17     6     7 1   
    18     6    15 1   
    19     6    21 1   
    20     6    29 1   
    21     7    30 1   
    22     7    31 1   
    23     7    32 1   
    24     8     9 1   
    25     8    16 1   
    26     8    33 1   
    27     9    11 1   
    28     9    12 1   
    29     9    43 1   
    30    10    16 1   
    31    10    17 2   
    32    11    23 1   
    33    12    34 1   
    34    12    35 1   
    35    12    36 1   
    36    13    19 1   
    37    13    20 1   
    38    14    23 1   
    39    14    37 1   
    40    14    38 1   
    41    15    39 1   
    42    15    40 1   
    43    15    41 1   
    44    18    42 1   
@<TRIPOS>SUBSTRUCTURE
     1 56X         1 TEMP              0 ****  ****    0 ROOT
