@<TRIPOS>MOLECULE
56X
   43    44     1     0     0
SMALL
No Charge or Current Charge


@<TRIPOS>ATOM
      1 C10          3.0750     1.4020    70.6160 cy         1 56X      -0.227700
      2 C13          1.9780     2.4630    70.4960 c3         1 56X       0.194300
      3 C15          6.0900     1.4260    72.2190 ce         1 56X       0.020400
      4 C17          1.6330     2.8040    69.0330 c3         1 56X      -0.089100
      5 C20          9.2310    -2.3130    72.9880 c          1 56X       0.650100
      6 C21         11.0990    -3.6840    72.2600 c3         1 56X       0.181300
      7 C22         10.4980    -5.0920    72.4740 c3         1 56X      -0.102600
      8 C09          3.7210     1.1280    72.0350 cy         1 56X       0.029700
      9 C11          4.3610    -0.2050    72.5370 c5         1 56X      -0.016500
     10 C12          4.5060     1.8380    70.1820 c          1 56X       0.573000
     11 C14          5.8190     0.2200    72.7850 c2         1 56X      -0.135600
     12 C16          4.2620    -1.4230    71.5910 c3         1 56X      -0.083100
     13 C18          7.3710     2.2460    72.1590 c          1 56X       0.724200
     14 C19          8.1200    -1.3980    72.4510 c3         1 56X      -0.004400
     15 C23         12.0600    -3.6360    71.0580 c3         1 56X      -0.102600
     16 N8           4.9130     1.7710    71.5100 nj         1 56X      -0.264000
     17 O2           5.0800     2.0650    69.1270 o          1 56X      -0.477000
     18 O3           0.7910     2.0120    71.1490 oh         1 56X      -0.672000
     19 O4           8.3590     1.8860    72.7840 o          1 56X      -0.686500
     20 O5           7.3580     3.2790    71.5000 o          1 56X      -0.686500
     21 O6          10.0280    -2.7670    71.9660 os         1 56X      -0.440100
     22 O7           9.3940    -2.5930    74.1710 o          1 56X      -0.499000
     23 S1           6.9200    -0.8120    73.7480 ss         1 56X      -0.263600
     24 H1           2.7750     0.5010    70.0710 hc         1 56X       0.087700
     25 H2           2.3460     3.3770    70.9840 h1         1 56X       0.040700
     26 H4           0.8440     3.5640    68.9910 hc         1 56X       0.044033
     27 H5           2.5100     3.2000    68.5080 hc         1 56X       0.044033
     28 H6           1.2820     1.9140    68.4950 hc         1 56X       0.044033
     29 H7          11.6520    -3.3750    73.1590 h1         1 56X       0.074700
     30 H8           9.8590    -5.1210    73.3630 hc         1 56X       0.038367
     31 H9           9.9010    -5.3960    71.6060 hc         1 56X       0.038367
     32 H10         11.2980    -5.8290    72.6130 hc         1 56X       0.038367
     33 H11          3.2860     1.7140    72.8540 h1         1 56X       0.066700
     34 H14          3.2150    -1.6840    71.3960 hc         1 56X       0.031700
     35 H15          4.7450    -1.2200    70.6270 hc         1 56X       0.031700
     36 H16          4.7470    -2.3030    72.0290 hc         1 56X       0.031700
     37 H17          7.5730    -1.9560    71.6820 h1         1 56X       0.079200
     38 H18          8.6010    -0.5420    71.9680 h1         1 56X       0.079200
     39 H19         12.9050    -4.3170    71.2150 hc         1 56X       0.038367
     40 H20         11.5470    -3.9300    70.1350 hc         1 56X       0.038367
     41 H21         12.4600    -2.6230    70.9270 hc         1 56X       0.038367
     42 H22          1.0420     1.7880    72.0710 ho         1 56X       0.441000
     43 H3           3.8990    -0.5170    73.4810 hc         1 56X       0.052700
@<TRIPOS>BOND
     1     1     2 1   
     2     1     8 1   
     3     1    10 1   
     4     1    24 1   
     5     2     4 1   
     6     2    18 1   
     7     2    25 1   
     8     3    11 2   
     9     3    13 1   
    10     3    16 1   
    11     4    26 1   
    12     4    27 1   
    13     4    28 1   
    14     5    14 1   
    15     5    21 1   
    16     5    22 2   
    17     6     7 1   
    18     6    15 1   
    19     6    21 1   
    20     6    29 1   
    21     7    30 1   
    22     7    31 1   
    23     7    32 1   
    24     8     9 1   
    25     8    16 1   
    26     8    33 1   
    27     9    11 1   
    28     9    12 1   
    29     9    43 1   
    30    10    16 1   
    31    10    17 2   
    32    11    23 1   
    33    12    34 1   
    34    12    35 1   
    35    12    36 1   
    36    13    19 1   
    37    13    20 1   
    38    14    23 1   
    39    14    37 1   
    40    14    38 1   
    41    15    39 1   
    42    15    40 1   
    43    15    41 1   
    44    18    42 1   
@<TRIPOS>SUBSTRUCTURE
     1 56X         1 TEMP              0 ****  ****    0 ROOT
