@<TRIPOS>MOLECULE
56Y
   48    49     1     0     0
SMALL
abcg2


@<TRIPOS>ATOM
      1 C1          -3.8400    -2.0300    -1.4270 c3         1 56Y      -0.088100
      2 C2          -3.0960    -1.7260    -0.1260 c3         1 56Y      -0.015100
      3 C3          -2.7960    -0.2660     0.0210 cc         1 56Y      -0.052300
      4 C4          -3.7120     0.8080     0.2840 cc         1 56Y      -0.265600
      5 C5          -3.0130     2.0060     0.1020 cd         1 56Y      -0.064300
      6 C6           2.7370    -1.4100    -0.0260 ca         1 56Y      -0.123300
      7 C11          1.4580    -1.8650    -0.6830 c3         1 56Y       0.141300
      8 C14          3.4770    -2.2870     0.7590 ca         1 56Y      -0.084000
      9 C26         -3.4160     3.4270     0.2630 c3         1 56Y      -0.035800
     10 C27         -5.1050     0.7830     0.7230 c          1 56Y       0.613700
     11 C29         -5.7000    -0.5060     1.2290 c3         1 56Y      -0.191100
     12 C7          -1.5920     0.3220    -0.2870 cd         1 56Y      -0.250600
     13 C8          -0.2970    -0.1950    -0.7780 c          1 56Y       0.641700
     14 N6          -1.7620     1.6830    -0.2470 na         1 56Y      -0.070000
     15 N10          0.2760    -1.2290    -0.1230 n          1 56Y      -0.399800
     16 O28         -5.7780     1.8020     0.7220 o          1 56Y      -0.557100
     17 O9           0.2170     0.3340    -1.7600 o          1 56Y      -0.603100
     18 C9           3.1890    -0.1040    -0.1800 ca         1 56Y      -0.038000
     19 C10          4.3650     0.3250     0.4250 ca         1 56Y      -0.155600
     20 C12          5.0910    -0.5650     1.2160 ca         1 56Y      -0.082000
     21 C13          4.6460    -1.8660     1.3810 ca         1 56Y      -0.124000
     22 O16          3.9660     2.5920    -0.1450 o          1 56Y      -0.603100
     23 N17          6.0670     2.0390     0.4410 nt         1 56Y      -0.604000
     24 C16         -0.0600    -1.6470     1.2230 c3         1 56Y       0.087300
     25 H1          -4.0600    -3.0950    -1.5050 hc         1 56Y       0.037367
     26 H2          -4.7830    -1.4880    -1.4980 hc         1 56Y       0.037367
     27 H3          -3.2350    -1.7480    -2.2900 hc         1 56Y       0.037367
     28 H4          -3.6650    -2.1010     0.7250 hc         1 56Y       0.044700
     29 H5          -2.1680    -2.2970    -0.1310 hc         1 56Y       0.044700
     30 H6           1.4890    -1.6720    -1.7540 h1         1 56Y       0.067200
     31 H7           1.3470    -2.9450    -0.5550 h1         1 56Y       0.067200
     32 H8           3.1370    -3.3080     0.8920 ha         1 56Y       0.112000
     33 H9          -3.8200     3.6170     1.2570 hc         1 56Y       0.059367
     34 H10         -2.5610     4.0850     0.1140 hc         1 56Y       0.059367
     35 H11         -4.1870     3.7050    -0.4540 hc         1 56Y       0.059367
     36 H12         -5.0620    -0.9660     1.9840 hc         1 56Y       0.057367
     37 H13         -6.6800    -0.3170     1.6630 hc         1 56Y       0.057367
     38 H14         -5.8220    -1.2290     0.4210 hc         1 56Y       0.057367
     39 H15         -1.0280     2.3530    -0.4200 hn         1 56Y       0.364000
     40 H16          2.6240     0.5880    -0.7910 ha         1 56Y       0.153000
     41 H17          5.9930    -0.2560     1.7270 ha         1 56Y       0.109000
     42 H18          5.2040    -2.5510     2.0040 ha         1 56Y       0.117000
     43 H19          6.7630     1.3360     0.6170 hn         1 56Y       0.314000
     44 H20          6.3970     2.9800     0.2990 hn         1 56Y       0.314000
     45 H21          0.8220    -1.5760     1.8630 h1         1 56Y       0.044700
     46 H22         -0.8290    -1.0110     1.6490 h1         1 56Y       0.044700
     47 H23         -0.4090    -2.6800     1.2390 h1         1 56Y       0.044700
     48 C15          4.7780     1.7490     0.2140 c          1 56Y       0.616700
@<TRIPOS>BOND
     1     1     2 1   
     2     1    25 1   
     3     1    26 1   
     4     1    27 1   
     5     2     3 1   
     6     2    28 1   
     7     2    29 1   
     8     3     4 1   
     9     3    12 2   
    10     4     5 2   
    11     4    10 1   
    12     5     9 1   
    13     5    14 1   
    14     6     7 1   
    15     6     8 ar  
    16     6    18 ar  
    17     7    15 1   
    18     7    30 1   
    19     7    31 1   
    20     8    21 ar  
    21     8    32 1   
    22     9    33 1   
    23     9    34 1   
    24     9    35 1   
    25    10    11 1   
    26    10    16 2   
    27    11    36 1   
    28    11    37 1   
    29    11    38 1   
    30    12    13 1   
    31    12    14 1   
    32    13    15 1   
    33    13    17 2   
    34    14    39 1   
    35    15    24 1   
    36    18    19 ar  
    37    18    40 1   
    38    19    20 ar  
    39    19    48 1   
    40    20    21 ar  
    41    20    41 1   
    42    21    42 1   
    43    22    48 2   
    44    23    43 1   
    45    23    44 1   
    46    23    48 1   
    47    24    45 1   
    48    24    46 1   
    49    24    47 1   
@<TRIPOS>SUBSTRUCTURE
     1 56Y         1 TEMP              0 ****  ****    0 ROOT
