@<TRIPOS>MOLECULE
56Y
   48    49     1     0     0
SMALL
No Charge or Current Charge


@<TRIPOS>ATOM
      1 C1          -3.8920    -1.9690    -1.4130 c3         1 56Y      -0.088100
      2 C2          -2.9670    -1.6310    -0.2240 c3         1 56Y      -0.015100
      3 C3          -2.7560    -0.1330    -0.0630 cc         1 56Y      -0.052300
      4 C4          -3.7830     0.8110     0.2880 cc         1 56Y      -0.265600
      5 C5          -3.3210     2.0780    -0.0020 cd         1 56Y      -0.064300
      6 C6           2.7500    -1.3790    -0.0590 ca         1 56Y      -0.123300
      7 C11          1.4460    -1.7160    -0.7750 c3         1 56Y       0.141300
      8 C14          3.3070    -2.2860     0.8610 ca         1 56Y      -0.084000
      9 C26         -3.9710     3.4330     0.1500 c3         1 56Y      -0.035800
     10 C27         -5.1510     0.5620     0.8680 c          1 56Y       0.613700
     11 C29         -5.5030    -0.7790     1.5190 c3         1 56Y      -0.191100
     12 C7          -1.6340     0.5930    -0.4300 cd         1 56Y      -0.250600
     13 C8          -0.2780     0.1080    -0.8390 c          1 56Y       0.641700
     14 N6          -2.0280     1.9310    -0.4880 na         1 56Y      -0.070000
     15 N10          0.2520    -1.0450    -0.2100 n          1 56Y      -0.399800
     16 O28         -6.0030     1.4430     0.9030 o          1 56Y      -0.557100
     17 O9           0.3820     0.7410    -1.6530 o          1 56Y      -0.603100
     18 C9           3.4070    -0.1590    -0.3140 ca         1 56Y      -0.038000
     19 C10          4.6150     0.1700     0.3430 ca         1 56Y      -0.155600
     20 C12          5.1580    -0.7560     1.2680 ca         1 56Y      -0.082000
     21 C13          4.5050    -1.9730     1.5210 ca         1 56Y      -0.124000
     22 O16          4.8380     2.2960    -0.7550 o          1 56Y      -0.603100
     23 N17          6.4400     1.7850     0.6860 nt         1 56Y      -0.604000
     24 C16         -0.0990    -1.4040     1.1890 c3         1 56Y       0.087300
     25 H1          -4.0940    -3.0460    -1.4480 hc         1 56Y       0.037367
     26 H2          -4.8480    -1.4390    -1.3520 hc         1 56Y       0.037367
     27 H3          -3.4130    -1.6810    -2.3570 hc         1 56Y       0.037367
     28 H4          -3.3250    -2.0970     0.6970 hc         1 56Y       0.044700
     29 H5          -2.0280    -2.1400    -0.4490 hc         1 56Y       0.044700
     30 H6           1.5440    -1.4670    -1.8400 h1         1 56Y       0.067200
     31 H7           1.2810    -2.8010    -0.7280 h1         1 56Y       0.067200
     32 H8           2.8110    -3.2320     1.0680 ha         1 56Y       0.112000
     33 H9          -4.2960     3.6020     1.1830 hc         1 56Y       0.059367
     34 H10         -3.2810     4.2430    -0.1130 hc         1 56Y       0.059367
     35 H11         -4.8480     3.5240    -0.5010 hc         1 56Y       0.059367
     36 H12         -4.6670    -1.1070     2.1450 hc         1 56Y       0.057367
     37 H13         -6.4330    -0.7230     2.0950 hc         1 56Y       0.057367
     38 H14         -5.5910    -1.5560     0.7570 hc         1 56Y       0.057367
     39 H15         -1.4330     2.6950    -0.7970 hn         1 56Y       0.364000
     40 H16          2.9740     0.5390    -1.0280 ha         1 56Y       0.153000
     41 H17          6.0840    -0.5470     1.7970 ha         1 56Y       0.109000
     42 H18          4.9300    -2.6780     2.2330 ha         1 56Y       0.117000
     43 H19          6.8310     1.1340     1.3490 hn         1 56Y       0.314000
     44 H20          6.9000     2.6620     0.4940 hn         1 56Y       0.314000
     45 H21          0.8000    -1.3760     1.8170 h1         1 56Y       0.044700
     46 H22         -0.8230    -0.7020     1.6180 h1         1 56Y       0.044700
     47 H23         -0.5130    -2.4200     1.2230 h1         1 56Y       0.044700
     48 C15          5.2900     1.4910     0.0420 c          1 56Y       0.616700
@<TRIPOS>BOND
     1     1     2 1   
     2     1    25 1   
     3     1    26 1   
     4     1    27 1   
     5     2     3 1   
     6     2    28 1   
     7     2    29 1   
     8     3     4 1   
     9     3    12 2   
    10     4     5 2   
    11     4    10 1   
    12     5     9 1   
    13     5    14 1   
    14     6     7 1   
    15     6     8 ar  
    16     6    18 ar  
    17     7    15 1   
    18     7    30 1   
    19     7    31 1   
    20     8    21 ar  
    21     8    32 1   
    22     9    33 1   
    23     9    34 1   
    24     9    35 1   
    25    10    11 1   
    26    10    16 2   
    27    11    36 1   
    28    11    37 1   
    29    11    38 1   
    30    12    13 1   
    31    12    14 1   
    32    13    15 1   
    33    13    17 2   
    34    14    39 1   
    35    15    24 1   
    36    18    19 ar  
    37    18    40 1   
    38    19    20 ar  
    39    19    48 1   
    40    20    21 ar  
    41    20    41 1   
    42    21    42 1   
    43    22    48 2   
    44    23    43 1   
    45    23    44 1   
    46    23    48 1   
    47    24    45 1   
    48    24    46 1   
    49    24    47 1   
@<TRIPOS>SUBSTRUCTURE
     1 56Y         1 TEMP              0 ****  ****    0 ROOT
