@<TRIPOS>MOLECULE
56Z
   43    45     1     0     0
SMALL
No Charge or Current Charge


@<TRIPOS>ATOM
      1 C1          -6.7860     0.9450    -0.0100 ca         1 56Z       0.160100
      2 N1           0.2600    -1.4000     0.1320 nc         1 56Z      -0.792000
      3 O1           7.5040    -0.9690    -0.4800 o          1 56Z      -0.531000
      4 S1          -1.6190     0.4330     0.3090 ss         1 56Z      -0.060400
      5 C2          -6.7600    -0.1680     0.8430 ca         1 56Z      -0.184500
      6 N2          -0.7990    -3.3020    -0.0900 nv         1 56Z      -1.047900
      7 O2           7.7240     1.1610     0.9440 o          1 56Z      -0.531000
      8 S2           7.0870     0.3860    -0.1180 sy         1 56Z       1.147600
      9 C3          -5.6700    -1.0550     0.8270 ca         1 56Z      -0.035000
     10 N3           1.1130     0.7220     0.4370 nu         1 56Z      -0.919900
     11 O3          -3.6430    -2.9930    -0.1780 o          1 56Z      -0.591100
     12 C4          -4.6170     0.2830    -0.9110 ca         1 56Z      -0.035000
     13 N4           7.3250     1.2840    -1.4610 n8         1 56Z      -0.995100
     14 C5          -5.7090     1.1680    -0.8940 ca         1 56Z      -0.184500
     15 O6          -7.8840     1.7790     0.0520 os         1 56Z      -0.338100
     16 C7          -8.0080     2.9470    -0.7800 c3         1 56Z       0.147900
     17 C10         -4.5830    -0.8260    -0.0410 ca         1 56Z      -0.194600
     18 C11         -3.4310    -1.7930    -0.0580 c          1 56Z       0.652300
     19 C12         -2.0630    -1.2510     0.0640 cd         1 56Z      -0.459600
     20 C13         -0.9320    -2.0000     0.0370 cc         1 56Z       0.686900
     21 C14          0.0580    -0.1110     0.2530 cd         1 56Z       0.751300
     22 C15          2.4960     0.6010     0.2960 ca         1 56Z       0.360000
     23 C16          3.0950    -0.3760    -0.5190 ca         1 56Z      -0.175000
     24 C17          4.4920    -0.4460    -0.6460 ca         1 56Z       0.015500
     25 C18          5.3060     0.4760     0.0410 ca         1 56Z      -0.356500
     26 C19          4.7120     1.4660     0.8480 ca         1 56Z       0.015500
     27 C20          3.3130     1.5250     0.9640 ca         1 56Z      -0.175000
     28 H2          -7.5910    -0.3470     1.5200 ha         1 56Z       0.124500
     29 HN2          0.1020    -3.5980    -0.4390 hn         1 56Z       0.518500
     30 HN2A        -1.6170    -3.7950    -0.4320 hn         1 56Z       0.518500
     31 H3          -5.6660    -1.9160     1.4930 ha         1 56Z       0.124000
     32 HN3          0.8080     1.6200     0.7980 hn         1 56Z       0.511000
     33 H4          -3.8020     0.4550    -1.6120 ha         1 56Z       0.124000
     34 HN4          6.4550     1.8060    -1.5180 hn         1 56Z       0.474000
     35 HN4A         7.9980     1.9650    -1.1190 hn         1 56Z       0.474000
     36 H5          -5.7030     2.0140    -1.5740 ha         1 56Z       0.124500
     37 H7          -8.0020     2.6720    -1.8420 h1         1 56Z       0.042367
     38 H7A         -8.9520     3.4650    -0.5680 h1         1 56Z       0.042367
     39 H7B         -7.1850     3.6480    -0.5920 h1         1 56Z       0.042367
     40 H16          2.4860    -1.0800    -1.0750 ha         1 56Z       0.137500
     41 H17          4.9340    -1.2120    -1.2830 ha         1 56Z       0.137000
     42 H19          5.3230     2.1910     1.3860 ha         1 56Z       0.137000
     43 H20          2.8670     2.2930     1.5900 ha         1 56Z       0.137500
@<TRIPOS>BOND
     1     1     5 ar  
     2     1    14 ar  
     3     1    15 1   
     4     2    20 1   
     5     2    21 2   
     6     3     8 2   
     7     4    19 1   
     8     4    21 1   
     9     5     9 ar  
    10     5    28 1   
    11     6    20 1   
    12     6    29 1   
    13     6    30 1   
    14     7     8 2   
    15     8    13 1   
    16     8    25 1   
    17     9    17 ar  
    18     9    31 1   
    19    10    21 1   
    20    10    22 1   
    21    10    32 1   
    22    11    18 2   
    23    12    14 ar  
    24    12    17 ar  
    25    12    33 1   
    26    13    34 1   
    27    13    35 1   
    28    14    36 1   
    29    15    16 1   
    30    16    37 1   
    31    16    38 1   
    32    16    39 1   
    33    17    18 1   
    34    18    19 1   
    35    19    20 2   
    36    22    23 ar  
    37    22    27 ar  
    38    23    24 ar  
    39    23    40 1   
    40    24    25 ar  
    41    24    41 1   
    42    25    26 ar  
    43    26    27 ar  
    44    26    42 1   
    45    27    43 1   
@<TRIPOS>SUBSTRUCTURE
     1 56Z         1 TEMP              0 ****  ****    0 ROOT
