@<TRIPOS>MOLECULE
56Z
   43    45     1     0     0
SMALL
bcc


@<TRIPOS>ATOM
      1 C1          -6.7190     0.9470     0.0570 ca         1 56Z       0.160100
      2 N1           0.2940    -1.3650    -0.1510 nc         1 56Z      -0.792000
      3 O1           7.4080    -0.8590     0.2050 o          1 56Z      -0.601800
      4 S1          -1.5630     0.3820     0.2630 ss         1 56Z      -0.205300
      5 C2          -6.7060    -0.2660     0.7550 ca         1 56Z      -0.202500
      6 N2          -0.8470    -3.3250    -0.5940 nv         1 56Z      -0.937500
      7 O2           7.5020     1.5050     1.0730 o          1 56Z      -0.601800
      8 S2           6.9850     0.5300     0.1280 sy         1 56Z       1.289200
      9 C3          -5.6240    -1.1130     0.6540 ca         1 56Z      -0.053000
     10 N3           1.0630     0.7930     0.3830 nu         1 56Z      -0.726300
     11 O3          -3.6300    -2.9360    -0.3640 o          1 56Z      -0.591100
     12 C4          -4.5340     0.4350    -0.8100 ca         1 56Z      -0.053000
     13 N4           7.4230     1.0610    -1.3660 n8         1 56Z      -0.884700
     14 C5          -5.6270     1.2890    -0.7370 ca         1 56Z      -0.202500
     15 O6          -7.8160     1.7040     0.2050 os         1 56Z      -0.314900
     16 C7          -7.8890     2.9380    -0.4840 c3         1 56Z       0.124700
     17 C10         -4.5080    -0.7680    -0.1140 ca         1 56Z      -0.194600
     18 C11         -3.3820    -1.7340    -0.2280 c          1 56Z       0.652300
     19 C12         -2.0410    -1.2550    -0.1540 cd         1 56Z      -0.380000
     20 C13         -0.8830    -2.0250    -0.3120 cc         1 56Z       0.752200
     21 C14          0.0940    -0.1180     0.1550 cd         1 56Z       0.751300
     22 C15          2.4430     0.6500     0.3130 ca         1 56Z       0.221600
     23 C16          3.0970    -0.5210    -0.0750 ca         1 56Z      -0.193000
     24 C17          4.4810    -0.5530    -0.1200 ca         1 56Z      -0.002500
     25 C18          5.2210     0.5700     0.2200 ca         1 56Z      -0.356500
     26 C19          4.5790     1.7390     0.6120 ca         1 56Z      -0.002500
     27 C20          3.2010     1.7760     0.6540 ca         1 56Z      -0.193000
     28 H2          -7.5560    -0.5340     1.3710 ha         1 56Z       0.142500
     29 HN2          0.0350    -3.7800    -0.7540 hn         1 56Z       0.463300
     30 HN2A        -1.7040    -3.8330    -0.7300 hn         1 56Z       0.463300
     31 H3          -5.6360    -2.0510     1.1950 ha         1 56Z       0.142000
     32 HN3          0.7480     1.7160     0.6450 hn         1 56Z       0.455800
     33 H4          -3.7130     0.7130    -1.4590 ha         1 56Z       0.142000
     34 HN4          7.0880     0.4720    -2.1210 hn         1 56Z       0.418800
     35 HN4A         7.1970     2.0350    -1.5350 hn         1 56Z       0.418800
     36 H5          -5.6120     2.2050    -1.3120 ha         1 56Z       0.142500
     37 H7          -7.8540     2.8020    -1.5680 h1         1 56Z       0.042367
     38 H7A         -8.8440     3.3840    -0.2180 h1         1 56Z       0.042367
     39 H7B         -7.0880     3.6190    -0.1860 h1         1 56Z       0.042367
     40 H16          2.5390    -1.4050    -0.3370 ha         1 56Z       0.155500
     41 H17          4.9690    -1.4700    -0.4210 ha         1 56Z       0.155000
     42 H19          5.1380     2.6210     0.8920 ha         1 56Z       0.155000
     43 H20          2.7070     2.6880     0.9640 ha         1 56Z       0.155500
@<TRIPOS>BOND
     1     1     5 ar  
     2     1    14 ar  
     3     1    15 1   
     4     2    20 1   
     5     2    21 2   
     6     3     8 2   
     7     4    19 1   
     8     4    21 1   
     9     5     9 ar  
    10     5    28 1   
    11     6    20 1   
    12     6    29 1   
    13     6    30 1   
    14     7     8 2   
    15     8    13 1   
    16     8    25 1   
    17     9    17 ar  
    18     9    31 1   
    19    10    21 1   
    20    10    22 1   
    21    10    32 1   
    22    11    18 2   
    23    12    14 ar  
    24    12    17 ar  
    25    12    33 1   
    26    13    34 1   
    27    13    35 1   
    28    14    36 1   
    29    15    16 1   
    30    16    37 1   
    31    16    38 1   
    32    16    39 1   
    33    17    18 1   
    34    18    19 1   
    35    19    20 2   
    36    22    23 ar  
    37    22    27 ar  
    38    23    24 ar  
    39    23    40 1   
    40    24    25 ar  
    41    24    41 1   
    42    25    26 ar  
    43    26    27 ar  
    44    26    42 1   
    45    27    43 1   
@<TRIPOS>SUBSTRUCTURE
     1 56Z         1 TEMP              0 ****  ****    0 ROOT
