@<TRIPOS>MOLECULE
570
   70    74     1     0     0
SMALL
bcc


@<TRIPOS>ATOM
      1 N           -1.2480    -0.4620     3.6250 nu         1 570      -0.723600
      2 CA          -1.2710    -1.8960     3.4630 c3         1 570       0.072500
      3 CB           0.1340    -2.3630     3.0520 c3         1 570      -0.037100
      4 CG           0.6620    -1.6710     1.8270 ca         1 570      -0.087300
      5 CD1          1.6160    -0.6570     1.9180 ca         1 570      -0.095500
      6 CD2          0.1950    -2.0020     0.5610 ca         1 570      -0.095500
      7 CE1          2.0820     0.0010     0.7930 ca         1 570      -0.189500
      8 CE2          0.6520    -1.3580    -0.5810 ca         1 570      -0.189500
      9 CZ           1.6040    -0.3460    -0.4700 ca         1 570       0.121100
     10 OH           2.1140     0.3380    -1.5170 os         1 570      -0.337900
     11 C1A         -2.2800     0.2510     4.1460 ca         1 570       0.279600
     12 C1F         -2.1220     1.5750     4.6320 ca         1 570      -0.285600
     13 C1E         -3.2510     2.2960     5.0440 ca         1 570      -0.040000
     14 C1D         -4.5150     1.7470     5.0390 ca         1 570      -0.233000
     15 C1C         -4.6670     0.4420     4.5720 ca         1 570      -0.067000
     16 C1B         -3.5830    -0.2860     4.1330 ca         1 570      -0.195000
     17 C1H          0.4260     1.6350     5.0910 ca         1 570      -0.181600
     18 C1I          1.6450     2.1230     4.6150 ca         1 570      -0.079000
     19 C1J          2.8330     1.5220     4.9970 ca         1 570      -0.150000
     20 C1K          2.8160     0.4430     5.8740 ca         1 570      -0.124000
     21 C1L          1.6090    -0.0360     6.3640 ca         1 570      -0.150000
     22 C1M          0.4160     0.5530     5.9710 ca         1 570      -0.079000
     23 C1G         -0.8350     2.3150     4.6790 c          1 570       0.609300
     24 O1G         -0.8050     3.5060     4.4230 o          1 570      -0.566100
     25 O3F          1.9370     0.0040    -7.3010 os         1 570      -0.351800
     26 C3G          0.7230     0.3630    -6.8660 cc         1 570       0.544900
     27 N3H          0.7170     0.7210    -5.6270 nd         1 570      -0.672000
     28 C3C          2.0230     0.5900    -5.2020 cd         1 570       0.248300
     29 C3D          2.7740     0.1460    -6.2380 cc         1 570       0.154700
     30 C3E          4.2030    -0.1840    -6.4240 c3         1 570      -0.114400
     31 C3I         -0.4020     0.3090    -7.7880 ca         1 570      -0.130500
     32 C3N         -0.2320    -0.0470    -9.1270 ca         1 570      -0.091000
     33 C3M         -1.3260    -0.0910    -9.9780 ca         1 570      -0.138000
     34 C3L         -2.5950     0.2160    -9.5060 ca         1 570      -0.114000
     35 C3K         -2.7670     0.5730    -8.1740 ca         1 570      -0.138000
     36 C3J         -1.6790     0.6200    -7.3190 ca         1 570      -0.091000
     37 C3A          1.7010    -0.0150    -2.8240 c3         1 570       0.146400
     38 C3B          2.4250     0.8950    -3.8020 c3         1 570      -0.099700
     39 C           -1.6850    -2.6870     4.7370 c          1 570       0.915600
     40 HN          -0.3320    -0.0700     3.7560 hn         1 570       0.413800
     41 HA          -1.9590    -2.1630     2.6530 h1         1 570       0.051700
     42 HB1          0.0880    -3.4400     2.8860 hc         1 570       0.060700
     43 HB2          0.8200    -2.2020     3.8900 hc         1 570       0.060700
     44 HD1          2.0110    -0.3740     2.8880 ha         1 570       0.134500
     45 HD2         -0.5460    -2.7860     0.4530 ha         1 570       0.134500
     46 HE1          2.8240     0.7840     0.8860 ha         1 570       0.129000
     47 HE2          0.2590    -1.6610    -1.5420 ha         1 570       0.129000
     48 H1E         -3.1140     3.3080     5.4030 ha         1 570       0.121000
     49 H1D         -5.3670     2.3160     5.3850 ha         1 570       0.114000
     50 H1C         -5.6490    -0.0130     4.5460 ha         1 570       0.112000
     51 H1B         -3.7500    -1.2880     3.7610 ha         1 570       0.150000
     52 H1I          1.6600     2.9580     3.9270 ha         1 570       0.163500
     53 H1J          3.7740     1.8910     4.6100 ha         1 570       0.131500
     54 H1K          3.7450    -0.0260     6.1700 ha         1 570       0.118000
     55 H1L          1.5930    -0.8750     7.0460 ha         1 570       0.131500
     56 H1M         -0.5210     0.1500     6.3280 ha         1 570       0.163500
     57 H3E1         4.6550     0.4220    -7.2110 hc         1 570       0.055700
     58 H3E2         4.7510     0.0050    -5.5030 hc         1 570       0.055700
     59 H3E3         4.3440    -1.2330    -6.6880 hc         1 570       0.055700
     60 H3N          0.7490    -0.2910    -9.5130 ha         1 570       0.150000
     61 H3M         -1.1840    -0.3680   -11.0140 ha         1 570       0.133500
     62 H3L         -3.4460     0.1780   -10.1730 ha         1 570       0.130000
     63 H3K         -3.7530     0.8130    -7.7990 ha         1 570       0.133500
     64 H3J         -1.8170     0.8940    -6.2810 ha         1 570       0.150000
     65 H3A1         0.6180     0.1040    -2.9340 h1         1 570       0.041700
     66 H3A2         1.9440    -1.0630    -3.0350 h1         1 570       0.041700
     67 H3B1         3.5050     0.7710    -3.6920 hc         1 570       0.064700
     68 H3B2         2.1930     1.9380    -3.5700 hc         1 570       0.064700
     69 O2          -2.1000    -3.8420     4.5190 o          1 570      -0.820300
     70 O1          -1.5300    -2.1330     5.8370 o          1 570      -0.820300
@<TRIPOS>BOND
     1     1     2 1   
     2     1    11 1   
     3     1    40 1   
     4     2     3 1   
     5     2    39 1   
     6     2    41 1   
     7     3     4 1   
     8     3    42 1   
     9     3    43 1   
    10     4     5 ar  
    11     4     6 ar  
    12     5     7 ar  
    13     5    44 1   
    14     6     8 ar  
    15     6    45 1   
    16     7     9 ar  
    17     7    46 1   
    18     8     9 ar  
    19     8    47 1   
    20     9    10 1   
    21    10    37 1   
    22    11    12 ar  
    23    11    16 ar  
    24    12    13 ar  
    25    12    23 1   
    26    13    14 ar  
    27    13    48 1   
    28    14    15 ar  
    29    14    49 1   
    30    15    16 ar  
    31    15    50 1   
    32    16    51 1   
    33    17    18 ar  
    34    17    22 ar  
    35    17    23 1   
    36    18    19 ar  
    37    18    52 1   
    38    19    20 ar  
    39    19    53 1   
    40    20    21 ar  
    41    20    54 1   
    42    21    22 ar  
    43    21    55 1   
    44    22    56 1   
    45    23    24 2   
    46    25    26 1   
    47    25    29 1   
    48    26    27 2   
    49    26    31 1   
    50    27    28 1   
    51    28    29 2   
    52    28    38 1   
    53    29    30 1   
    54    30    57 1   
    55    30    58 1   
    56    30    59 1   
    57    31    32 ar  
    58    31    36 ar  
    59    32    33 ar  
    60    32    60 1   
    61    33    34 ar  
    62    33    61 1   
    63    34    35 ar  
    64    34    62 1   
    65    35    36 ar  
    66    35    63 1   
    67    36    64 1   
    68    37    38 1   
    69    37    65 1   
    70    37    66 1   
    71    38    67 1   
    72    38    68 1   
    73    39    69 1   
    74    39    70 1   
@<TRIPOS>SUBSTRUCTURE
     1 570         1 TEMP              0 ****  ****    0 ROOT
