@<TRIPOS>MOLECULE
570
   70    74     1     0     0
SMALL
No Charge or Current Charge


@<TRIPOS>ATOM
      1 N           -1.2250    -0.6420     3.7280 nu         1 570      -0.757200
      2 CA          -0.9370    -2.1110     3.7350 c3         1 570       0.072500
      3 CB           0.5520    -2.3410     3.3680 c3         1 570      -0.037100
      4 CG           0.9710    -1.6820     2.0560 ca         1 570      -0.087300
      5 CD1          1.9250    -0.6470     2.0560 ca         1 570      -0.077500
      6 CD2          0.4050    -2.0990     0.8350 ca         1 570      -0.077500
      7 CE1          2.3030    -0.0320     0.8500 ca         1 570      -0.171500
      8 CE2          0.7840    -1.4860    -0.3720 ca         1 570      -0.171500
      9 CZ           1.7380    -0.4440    -0.3670 ca         1 570       0.121100
     10 OH           2.1480     0.1960    -1.5180 os         1 570      -0.361100
     11 C1A         -2.3720     0.0100     4.1920 ca         1 570       0.418000
     12 C1F         -2.3380     1.3900     4.4810 ca         1 570      -0.285600
     13 C1E         -3.5140     2.0430     4.9050 ca         1 570      -0.022000
     14 C1D         -4.7090     1.3260     5.0580 ca         1 570      -0.215000
     15 C1C         -4.7480    -0.0440     4.7660 ca         1 570      -0.049000
     16 C1B         -3.5850    -0.6930     4.3260 ca         1 570      -0.177000
     17 C1H          0.2250     1.7600     4.8530 ca         1 570      -0.181600
     18 C1I          1.4340     2.2490     4.3060 ca         1 570      -0.061000
     19 C1J          2.6710     1.8440     4.8350 ca         1 570      -0.132000
     20 C1K          2.7180     0.9500     5.9160 ca         1 570      -0.106000
     21 C1L          1.5240     0.4690     6.4750 ca         1 570      -0.132000
     22 C1M          0.2830     0.8750     5.9530 ca         1 570      -0.061000
     23 C1G         -1.1000     2.2130     4.2760 c          1 570       0.609300
     24 O1G         -1.1740     3.2650     3.6500 o          1 570      -0.566100
     25 O3F          1.7330    -0.3360    -7.3260 os         1 570      -0.263000
     26 C3G          0.6640     0.4510    -7.0050 cc         1 570       0.500500
     27 N3H          0.6920     0.9460    -5.7740 nd         1 570      -0.672000
     28 C3C          1.8640     0.4470    -5.2500 cd         1 570       0.248300
     29 C3D          2.4860    -0.3270    -6.1980 cc         1 570       0.110300
     30 C3E          3.7710    -1.1060    -6.1650 c3         1 570      -0.114400
     31 C3I         -0.3830     0.6710    -8.0120 ca         1 570      -0.130500
     32 C3N         -0.2920     0.0830    -9.2950 ca         1 570      -0.073000
     33 C3M         -1.2990     0.2980   -10.2530 ca         1 570      -0.120000
     34 C3L         -2.4070     1.1020    -9.9440 ca         1 570      -0.096000
     35 C3K         -2.5090     1.6920    -8.6740 ca         1 570      -0.120000
     36 C3J         -1.5050     1.4780    -7.7140 ca         1 570      -0.073000
     37 C3A          1.6300    -0.1530    -2.8130 c3         1 570       0.169600
     38 C3B          2.3110     0.7570    -3.8480 c3         1 570      -0.099700
     39 C           -1.2890    -2.8500     5.0870 c          1 570       0.705000
     40 HN          -0.4100    -0.0450     3.6330 hn         1 570       0.309000
     41 HA          -1.5530    -2.5830     2.9580 h1         1 570       0.051700
     42 HB1          0.7340    -3.4210     3.3090 hc         1 570       0.060700
     43 HB2          1.1780    -1.9760     4.1920 hc         1 570       0.060700
     44 HD1          2.3730    -0.3160     2.9900 ha         1 570       0.116500
     45 HD2         -0.3310    -2.9000     0.8220 ha         1 570       0.116500
     46 HE1          3.0390     0.7690     0.8600 ha         1 570       0.111000
     47 HE2          0.3280    -1.8300    -1.2960 ha         1 570       0.111000
     48 H1E         -3.5010     3.1110     5.1180 ha         1 570       0.103000
     49 H1D         -5.6100     1.8360     5.3910 ha         1 570       0.096000
     50 H1C         -5.6780    -0.5990     4.8690 ha         1 570       0.094000
     51 H1B         -3.6370    -1.7470     4.0770 ha         1 570       0.132000
     52 H1I          1.4160     2.9390     3.4640 ha         1 570       0.145500
     53 H1J          3.5950     2.2220     4.4030 ha         1 570       0.113500
     54 H1K          3.6760     0.6350     6.3230 ha         1 570       0.100000
     55 H1L          1.5570    -0.2200     7.3160 ha         1 570       0.113500
     56 H1M         -0.6300     0.4950     6.4080 ha         1 570       0.145500
     57 H3E1         3.8690    -1.7460    -7.0500 hc         1 570       0.055700
     58 H3E2         4.6330    -0.4290    -6.1380 hc         1 570       0.055700
     59 H3E3         3.8140    -1.7480    -5.2770 hc         1 570       0.055700
     60 H3N          0.5580    -0.5440    -9.5570 ha         1 570       0.132000
     61 H3M         -1.2180    -0.1600   -11.2360 ha         1 570       0.115500
     62 H3L         -3.1850     1.2680   -10.6860 ha         1 570       0.112000
     63 H3K         -3.3680     2.3150    -8.4320 ha         1 570       0.115500
     64 H3J         -1.6020     1.9440    -6.7350 ha         1 570       0.132000
     65 H3A1         0.5430    -0.0040    -2.8520 h1         1 570       0.041700
     66 H3A2         1.8500    -1.2030    -3.0490 h1         1 570       0.041700
     67 H3B1         3.3990     0.6400    -3.7690 hc         1 570       0.064700
     68 H3B2         2.0880     1.8030    -3.6080 hc         1 570       0.064700
     69 O2          -2.0700    -3.7920     5.0390 o          1 570      -0.715000
     70 O1          -0.7950    -2.4510     6.1350 o          1 570      -0.715000
@<TRIPOS>BOND
     1     1     2 1   
     2     1    11 1   
     3     1    40 1   
     4     2     3 1   
     5     2    39 1   
     6     2    41 1   
     7     3     4 1   
     8     3    42 1   
     9     3    43 1   
    10     4     5 ar  
    11     4     6 ar  
    12     5     7 ar  
    13     5    44 1   
    14     6     8 ar  
    15     6    45 1   
    16     7     9 ar  
    17     7    46 1   
    18     8     9 ar  
    19     8    47 1   
    20     9    10 1   
    21    10    37 1   
    22    11    12 ar  
    23    11    16 ar  
    24    12    13 ar  
    25    12    23 1   
    26    13    14 ar  
    27    13    48 1   
    28    14    15 ar  
    29    14    49 1   
    30    15    16 ar  
    31    15    50 1   
    32    16    51 1   
    33    17    18 ar  
    34    17    22 ar  
    35    17    23 1   
    36    18    19 ar  
    37    18    52 1   
    38    19    20 ar  
    39    19    53 1   
    40    20    21 ar  
    41    20    54 1   
    42    21    22 ar  
    43    21    55 1   
    44    22    56 1   
    45    23    24 2   
    46    25    26 1   
    47    25    29 1   
    48    26    27 2   
    49    26    31 1   
    50    27    28 1   
    51    28    29 2   
    52    28    38 1   
    53    29    30 1   
    54    30    57 1   
    55    30    58 1   
    56    30    59 1   
    57    31    32 ar  
    58    31    36 ar  
    59    32    33 ar  
    60    32    60 1   
    61    33    34 ar  
    62    33    61 1   
    63    34    35 ar  
    64    34    62 1   
    65    35    36 ar  
    66    35    63 1   
    67    36    64 1   
    68    37    38 1   
    69    37    65 1   
    70    37    66 1   
    71    38    67 1   
    72    38    68 1   
    73    39    69 1   
    74    39    70 1   
@<TRIPOS>SUBSTRUCTURE
     1 570         1 TEMP              0 ****  ****    0 ROOT
