@<TRIPOS>MOLECULE
571
   61    65     1     0     0
SMALL
No Charge or Current Charge


@<TRIPOS>ATOM
      1 N1           3.7140    -0.2190    -1.3960 n          1 571      -0.281400
      2 N2           2.9600     3.2300    -0.3990 na         1 571       0.105800
      3 C3           1.1260     2.1280    -0.5790 cc         1 571       0.524900
      4 N4           1.5780     3.2920    -0.1360 nd         1 571      -0.490800
      5 N5          -0.1580     1.6690    -0.4430 ns         1 571      -0.465400
      6 C6          -1.2410     2.2880     0.1390 c          1 571       0.636700
      7 C7          -2.5440     1.5120     0.1130 ca         1 571      -0.242600
      8 O8          -1.1770     3.3960     0.6500 o          1 571      -0.516100
      9 C9          -3.6950     2.0840     0.6990 ca         1 571      -0.012500
     10 C10         -4.9200     1.3960     0.6930 ca         1 571      -0.200000
     11 C11         -3.8880    -0.4500    -0.4740 ca         1 571      -0.200000
     12 C12         -2.6580     0.2300    -0.4760 ca         1 571      -0.012500
     13 C13          3.2700     2.0550    -1.0800 cd         1 571      -0.090300
     14 C14          2.1290     1.3540    -1.1670 cc         1 571      -0.418900
     15 C15          2.3150    -0.0250    -1.5160 ce         1 571       0.441100
     16 C16          4.4370     1.0860    -1.2280 c5         1 571       0.131300
     17 N17         -6.2740    -0.5450     0.1180 nh         1 571      -0.786400
     18 C18         -6.3510    -2.0410     0.0700 c6         1 571       0.205800
     19 C19         -7.7080    -2.5870     0.6190 c6         1 571       0.151800
     20 N20         -8.8950    -1.9600    -0.0390 n3         1 571      -0.709600
     21 C21         -8.8180    -0.4720     0.0900 c6         1 571       0.151800
     22 C22         -7.4830     0.1170    -0.4690 c6         1 571       0.205800
     23 C23        -10.1780    -2.5110     0.4490 c3         1 571       0.148100
     24 C24         -5.0300     0.1270     0.1080 ca         1 571       0.380000
     25 C25          4.2690    -1.4760    -1.0930 c          1 571       0.573100
     26 O26          3.5440    -2.4540    -0.9470 o          1 571      -0.465100
     27 C27          6.3680    -1.1220     0.3570 ca         1 571      -0.183300
     28 C29          5.7600    -1.5230     1.5670 ca         1 571      -0.098000
     29 C28          7.4890    -0.2670     0.4030 ca         1 571      -0.098000
     30 C33          6.2610    -1.0670     2.7990 ca         1 571      -0.098500
     31 C31          7.9880     0.1880     1.6360 ca         1 571      -0.098500
     32 C20          5.8290    -1.5980    -0.9950 c3         1 571       0.178600
     33 C35          7.3730    -0.2110     2.8340 ca         1 571      -0.075000
     34 O34          6.3020    -2.9430    -1.2320 oh         1 571      -0.601000
     35 H15          1.5770    -0.8060    -1.3190 h4         1 571       0.090800
     36 H161         5.0630     1.1180    -0.3260 h1         1 571       0.130200
     37 H162         5.0440     1.3460    -2.1060 h1         1 571       0.130200
     38 H2           3.6080     3.9540    -0.0910 hn         1 571       0.415000
     39 H5          -0.3520     0.7610    -0.8280 hn         1 571       0.336500
     40 H9          -3.6500     3.0660     1.1650 ha         1 571       0.113000
     41 H12         -1.8090    -0.2610    -0.9450 ha         1 571       0.113000
     42 H10         -5.7870     1.8510     1.1620 ha         1 571       0.125000
     43 H11         -3.9470    -1.4260    -0.9430 ha         1 571       0.125000
     44 H181        -6.2270    -2.3870    -0.9670 h1         1 571       0.051950
     45 H182        -5.5370    -2.4830     0.6630 h1         1 571       0.051950
     46 H221        -7.4740     1.1980    -0.2700 h1         1 571       0.051950
     47 H222        -7.4760    -0.0080    -1.5620 h1         1 571       0.051950
     48 H191        -7.7260    -3.6780     0.4790 h1         1 571       0.047450
     49 H192        -7.7400    -2.4050     1.7040 h1         1 571       0.047450
     50 H211        -9.6570     0.0010    -0.4420 h1         1 571       0.047450
     51 H212        -8.9070    -0.1810     1.1470 h1         1 571       0.047450
     52 H231       -10.3090    -2.3110     1.5210 h1         1 571       0.038700
     53 H232       -11.0230    -2.0620    -0.0900 h1         1 571       0.038700
     54 H233       -10.2180    -3.5970     0.2940 h1         1 571       0.038700
     55 H20          6.2270    -0.9400    -1.7800 h1         1 571       0.098700
     56 H28          7.9790     0.0490    -0.5170 ha         1 571       0.118500
     57 H29          4.8980    -2.1880     1.5620 ha         1 571       0.118500
     58 H31          8.8520     0.8480     1.6630 ha         1 571       0.134000
     59 H33          5.7860    -1.3790     3.7270 ha         1 571       0.134000
     60 H35          7.7600     0.1410     3.7890 ha         1 571       0.136000
     61 H34          5.9120    -3.5100    -0.5300 ho         1 571       0.475000
@<TRIPOS>BOND
     1     1    15 2   
     2     1    16 1   
     3     1    25 1   
     4     2     4 1   
     5     2    13 1   
     6     2    38 1   
     7     3     4 2   
     8     3     5 1   
     9     3    14 1   
    10     5     6 1   
    11     5    39 1   
    12     6     7 1   
    13     6     8 2   
    14     7     9 ar  
    15     7    12 ar  
    16     9    10 ar  
    17     9    40 1   
    18    10    24 ar  
    19    10    42 1   
    20    11    12 ar  
    21    11    24 ar  
    22    11    43 1   
    23    12    41 1   
    24    13    14 2   
    25    13    16 1   
    26    14    15 1   
    27    15    35 1   
    28    16    36 1   
    29    16    37 1   
    30    17    18 1   
    31    17    22 1   
    32    17    24 1   
    33    18    19 1   
    34    18    44 1   
    35    18    45 1   
    36    19    20 1   
    37    19    48 1   
    38    19    49 1   
    39    20    21 1   
    40    20    23 1   
    41    21    22 1   
    42    21    50 1   
    43    21    51 1   
    44    22    46 1   
    45    22    47 1   
    46    23    52 1   
    47    23    53 1   
    48    23    54 1   
    49    25    26 2   
    50    25    32 1   
    51    27    28 ar  
    52    27    29 ar  
    53    27    32 1   
    54    28    30 ar  
    55    28    57 1   
    56    29    31 ar  
    57    29    56 1   
    58    30    33 ar  
    59    30    59 1   
    60    31    33 ar  
    61    31    58 1   
    62    32    34 1   
    63    32    55 1   
    64    33    60 1   
    65    34    61 1   
@<TRIPOS>SUBSTRUCTURE
     1 571         1 TEMP              0 ****  ****    0 ROOT
