@<TRIPOS>MOLECULE
571
   61    65     1     0     0
SMALL
abcg2


@<TRIPOS>ATOM
      1 N1           3.9190    -0.2770    -0.8940 n          1 571      -0.281400
      2 N2           2.7040     3.0230    -0.3440 na         1 571       0.105800
      3 C3           0.9520     1.7900    -0.3580 cc         1 571       0.524900
      4 N4           1.3440     3.0330    -0.2230 nd         1 571      -0.490800
      5 N5          -0.3350     1.3430    -0.3010 ns         1 571      -0.465400
      6 C6          -1.4640     2.1110    -0.1070 c          1 571       0.636700
      7 C7          -2.7440     1.3770    -0.0670 ca         1 571      -0.242600
      8 O8          -1.3930     3.3170     0.0130 o          1 571      -0.516100
      9 C9          -3.9270     2.1220    -0.0810 ca         1 571      -0.012500
     10 C10         -5.1640     1.5220    -0.0470 ca         1 571      -0.200000
     11 C11         -4.1050    -0.6260     0.0370 ca         1 571      -0.200000
     12 C12         -2.8710    -0.0100    -0.0040 ca         1 571      -0.012500
     13 C13          3.1770     1.8270    -0.5510 cd         1 571      -0.090300
     14 C14          2.0920     0.9530    -0.5740 cc         1 571      -0.418900
     15 C15          2.5870    -0.3170    -0.7880 ce         1 571       0.441100
     16 C16          4.4420     1.0960    -0.7600 c5         1 571       0.131300
     17 N17         -6.5320    -0.4810     0.1050 nh         1 571      -0.786400
     18 C18         -6.6320    -1.9310     0.0610 c6         1 571       0.205800
     19 C19         -7.9490    -2.4130     0.6390 c6         1 571       0.151800
     20 N20         -9.0760    -1.7860    -0.0120 n3         1 571      -0.709600
     21 C21         -8.9860    -0.3530     0.1620 c6         1 571       0.151800
     22 C22         -7.7050     0.1860    -0.4410 c6         1 571       0.205800
     23 C23        -10.3320    -2.3070     0.4760 c3         1 571       0.148100
     24 C24         -5.3020     0.1190     0.0260 ca         1 571       0.380000
     25 C25          4.6930    -1.4350    -1.1400 c          1 571       0.573100
     26 O26          4.1520    -2.4920    -1.2890 o          1 571      -0.465100
     27 C27          6.7140    -0.9360     0.2230 ca         1 571      -0.183300
     28 C29          6.2930    -1.6870     1.3180 ca         1 571      -0.098000
     29 C28          7.6680     0.0610     0.4050 ca         1 571      -0.098000
     30 C33          6.8170    -1.4380     2.5780 ca         1 571      -0.098500
     31 C31          8.1900     0.3110     1.6660 ca         1 571      -0.098500
     32 C20          6.2040    -1.2390    -1.1710 c3         1 571       0.178600
     33 C35          7.7650    -0.4400     2.7550 ca         1 571      -0.075000
     34 O34          6.8180    -2.3410    -1.7590 oh         1 571      -0.601000
     35 H15          2.0510    -1.2520    -0.8700 h4         1 571       0.090800
     36 H161         5.1220     1.1770     0.0900 h1         1 571       0.130200
     37 H162         4.9590     1.4050    -1.6690 h1         1 571       0.130200
     38 H2           3.2050     3.8970    -0.2700 hn         1 571       0.415000
     39 H5          -0.4450     0.3540    -0.4580 hn         1 571       0.336500
     40 H9          -3.8790     3.2010    -0.1260 ha         1 571       0.113000
     41 H12         -2.0100    -0.6660     0.0220 ha         1 571       0.113000
     42 H10         -6.0290     2.1670    -0.0620 ha         1 571       0.125000
     43 H11         -4.1180    -1.7040     0.0690 ha         1 571       0.125000
     44 H181        -6.5150    -2.2960    -0.9680 h1         1 571       0.051950
     45 H182        -5.8400    -2.3760     0.6600 h1         1 571       0.051950
     46 H221        -7.6710     1.2520    -0.2340 h1         1 571       0.051950
     47 H222        -7.7330     0.0660    -1.5320 h1         1 571       0.051950
     48 H191        -8.0040    -3.4950     0.4990 h1         1 571       0.047450
     49 H192        -7.9540    -2.2290     1.7280 h1         1 571       0.047450
     50 H211        -9.8270     0.1290    -0.3410 h1         1 571       0.047450
     51 H212        -9.0370    -0.0670     1.2280 h1         1 571       0.047450
     52 H231       -10.4820    -2.1380     1.5540 h1         1 571       0.038700
     53 H232       -11.1620    -1.8380    -0.0540 h1         1 571       0.038700
     54 H233       -10.3840    -3.3820     0.2980 h1         1 571       0.038700
     55 H20          6.4240    -0.3870    -1.8220 h1         1 571       0.098700
     56 H28          8.0000     0.6490    -0.4420 ha         1 571       0.118500
     57 H29          5.5530    -2.4710     1.2040 ha         1 571       0.118500
     58 H31          8.9280     1.0910     1.7960 ha         1 571       0.134000
     59 H33          6.4840    -2.0270     3.4230 ha         1 571       0.134000
     60 H35          8.1710    -0.2460     3.7390 ha         1 571       0.136000
     61 H34          6.7400    -3.1070    -1.1780 ho         1 571       0.475000
@<TRIPOS>BOND
     1     1    15 2   
     2     1    16 1   
     3     1    25 1   
     4     2     4 1   
     5     2    13 1   
     6     2    38 1   
     7     3     4 2   
     8     3     5 1   
     9     3    14 1   
    10     5     6 1   
    11     5    39 1   
    12     6     7 1   
    13     6     8 2   
    14     7     9 ar  
    15     7    12 ar  
    16     9    10 ar  
    17     9    40 1   
    18    10    24 ar  
    19    10    42 1   
    20    11    12 ar  
    21    11    24 ar  
    22    11    43 1   
    23    12    41 1   
    24    13    14 2   
    25    13    16 1   
    26    14    15 1   
    27    15    35 1   
    28    16    36 1   
    29    16    37 1   
    30    17    18 1   
    31    17    22 1   
    32    17    24 1   
    33    18    19 1   
    34    18    44 1   
    35    18    45 1   
    36    19    20 1   
    37    19    48 1   
    38    19    49 1   
    39    20    21 1   
    40    20    23 1   
    41    21    22 1   
    42    21    50 1   
    43    21    51 1   
    44    22    46 1   
    45    22    47 1   
    46    23    52 1   
    47    23    53 1   
    48    23    54 1   
    49    25    26 2   
    50    25    32 1   
    51    27    28 ar  
    52    27    29 ar  
    53    27    32 1   
    54    28    30 ar  
    55    28    57 1   
    56    29    31 ar  
    57    29    56 1   
    58    30    33 ar  
    59    30    59 1   
    60    31    33 ar  
    61    31    58 1   
    62    32    34 1   
    63    32    55 1   
    64    33    60 1   
    65    34    61 1   
@<TRIPOS>SUBSTRUCTURE
     1 571         1 TEMP              0 ****  ****    0 ROOT
