@<TRIPOS>MOLECULE
572
   39    40     1     0     0
SMALL
No Charge or Current Charge


@<TRIPOS>ATOM
      1 O30         -2.4760     0.1210    -5.4480 oh         1 572      -0.635000
      2 C14         -1.5620    -0.9100    -5.0290 c3         1 572       0.119300
      3 C7          -0.3600    -0.3310    -4.2810 ca         1 572       0.172300
      4 N4          -0.4730    -0.2130    -2.9400 nb         1 572      -0.240000
      5 C2           0.5830     0.2920    -2.2710 ca         1 572       0.402900
      6 C5           1.7480     0.6780    -2.9610 ca         1 572      -0.300000
      7 C6           1.7700     0.5160    -4.3540 ca         1 572       0.139900
      8 N3           0.7170     0.0090    -5.0210 nb         1 572      -0.227000
      9 N1           0.4560     0.4080    -0.8650 nh         1 572      -0.786300
     10 C19         -0.8710     0.7410    -0.2360 c6         1 572       0.224800
     11 C15         -0.9640     0.3120     1.2600 c6         1 572       0.162300
     12 N17          0.1680     0.8280     2.0780 n3         1 572      -0.695500
     13 S28          0.0190     0.5500     3.7640 s6         1 572       1.264200
     14 O25         -1.3260     0.9450     4.1920 o          1 572      -0.548000
     15 N22          0.1390    -1.1670     3.7960 n3         1 572      -0.795500
     16 C13          1.2530    -1.6850     4.6140 c3         1 572       0.202600
     17 C11         -1.1280    -1.8640     4.0980 c3         1 572       0.202600
     18 O12          1.1920     1.1270     4.4250 o          1 572      -0.548000
     19 C16          1.4520     0.3570     1.4880 c6         1 572       0.162300
     20 C18          1.6270     0.7820    -0.0020 c6         1 572       0.224800
     21 H30         -3.2160    -0.3220    -5.9200 ho         1 572       0.442000
     22 H141        -1.2020    -1.4730    -5.9010 h1         1 572       0.041700
     23 H142        -2.0770    -1.6290    -4.3760 h1         1 572       0.041700
     24 H5           2.6080     1.1000    -2.4540 ha         1 572       0.129000
     25 H6           2.6410     0.7980    -4.9450 h4         1 572       0.018100
     26 H191        -1.7010     0.2550    -0.7690 h1         1 572       0.070450
     27 H192        -1.0440     1.8260    -0.2970 h1         1 572       0.070450
     28 H151        -0.9940    -0.7870     1.2990 h1         1 572       0.065450
     29 H152        -1.9250     0.6720     1.6550 h1         1 572       0.065450
     30 H131         1.1220    -1.4230     5.6730 h1         1 572       0.046533
     31 H132         1.3160    -2.7790     4.5390 h1         1 572       0.046533
     32 H133         2.2150    -1.2780     4.2730 h1         1 572       0.046533
     33 H111        -1.4640    -1.6470     5.1210 h1         1 572       0.046533
     34 H112        -1.9220    -1.5600     3.4030 h1         1 572       0.046533
     35 H113        -1.0060    -2.9510     4.0030 h1         1 572       0.046533
     36 H161         2.3070     0.7520     2.0560 h1         1 572       0.065450
     37 H162         1.5160    -0.7400     1.5410 h1         1 572       0.065450
     38 H181         2.5470     0.3040    -0.3700 h1         1 572       0.070450
     39 H182         1.7850     1.8700    -0.0400 h1         1 572       0.070450
@<TRIPOS>BOND
     1     1     2 1   
     2     1    21 1   
     3     2     3 1   
     4     2    22 1   
     5     2    23 1   
     6     3     4 ar  
     7     3     8 ar  
     8     4     5 ar  
     9     5     6 ar  
    10     5     9 1   
    11     6     7 ar  
    12     6    24 1   
    13     7     8 ar  
    14     7    25 1   
    15     9    10 1   
    16     9    20 1   
    17    10    11 1   
    18    10    26 1   
    19    10    27 1   
    20    11    12 1   
    21    11    28 1   
    22    11    29 1   
    23    12    13 1   
    24    12    19 1   
    25    13    14 2   
    26    13    15 1   
    27    13    18 2   
    28    15    16 1   
    29    15    17 1   
    30    16    30 1   
    31    16    31 1   
    32    16    32 1   
    33    17    33 1   
    34    17    34 1   
    35    17    35 1   
    36    19    20 1   
    37    19    36 1   
    38    19    37 1   
    39    20    38 1   
    40    20    39 1   
@<TRIPOS>SUBSTRUCTURE
     1 572         1 TEMP              0 ****  ****    0 ROOT
