@<TRIPOS>MOLECULE
572
   39    40     1     0     0
SMALL
abcg2


@<TRIPOS>ATOM
      1 O30         -2.6990    -0.5200    -4.0890 oh         1 572      -0.635000
      2 C14         -1.5360    -0.7370    -4.8350 c3         1 572       0.119300
      3 C7          -0.3080    -0.3820    -4.0410 ca         1 572       0.172300
      4 N4          -0.4620     0.0750    -2.8160 nb         1 572      -0.240000
      5 C2           0.6300     0.3970    -2.1110 ca         1 572       0.402900
      6 C5           1.9020     0.2450    -2.7010 ca         1 572      -0.300000
      7 C6           1.9290    -0.2430    -3.9840 ca         1 572       0.139900
      8 N3           0.8400    -0.5660    -4.6800 nb         1 572      -0.227000
      9 N1           0.4400     0.8560    -0.8550 nh         1 572      -0.786300
     10 C19         -0.8790     1.0450    -0.2850 c6         1 572       0.224800
     11 C15         -0.9880     0.3460     1.0580 c6         1 572       0.162300
     12 N17          0.0710     0.8350     1.9420 n3         1 572      -0.695500
     13 S28         -0.0960     0.4550     3.5510 s6         1 572       1.264200
     14 O25         -1.4540     0.8170     3.9110 o          1 572      -0.548000
     15 N22          0.0700    -1.1860     3.6750 n3         1 572      -0.795500
     16 C13          1.2890    -1.7080     4.2800 c3         1 572       0.202600
     17 C11         -1.1280    -1.9820     3.9090 c3         1 572       0.202600
     18 O12          1.0220     1.0830     4.2300 o          1 572      -0.548000
     19 C16          1.3970     0.5890     1.3730 c6         1 572       0.162300
     20 C18          1.5000     1.2860     0.0280 c6         1 572       0.224800
     21 H30         -3.4470    -0.7250    -4.6560 ho         1 572       0.442000
     22 H141        -1.5140    -0.1380    -5.7560 h1         1 572       0.041700
     23 H142        -1.4320    -1.7830    -5.1530 h1         1 572       0.041700
     24 H5           2.8280     0.4870    -2.2040 ha         1 572       0.129000
     25 H6           2.8830    -0.3820    -4.4820 h4         1 572       0.018100
     26 H191        -1.6290     0.6480    -0.9630 h1         1 572       0.070450
     27 H192        -1.0690     2.1150    -0.1530 h1         1 572       0.070450
     28 H151        -0.9150    -0.7400     0.9170 h1         1 572       0.065450
     29 H152        -1.9630     0.5780     1.4840 h1         1 572       0.065450
     30 H131         1.2890    -1.6250     5.3700 h1         1 572       0.046533
     31 H132         1.3620    -2.7610     4.0160 h1         1 572       0.046533
     32 H133         2.1720    -1.2120     3.8890 h1         1 572       0.046533
     33 H111        -1.4450    -1.9680     4.9550 h1         1 572       0.046533
     34 H112        -1.9550    -1.6520     3.2870 h1         1 572       0.046533
     35 H113        -0.9020    -3.0100     3.6310 h1         1 572       0.046533
     36 H161         2.1650     0.9970     2.0260 h1         1 572       0.065450
     37 H162         1.5790    -0.4860     1.2440 h1         1 572       0.065450
     38 H181         2.4780     1.0650    -0.3880 h1         1 572       0.070450
     39 H182         1.4420     2.3700     0.1730 h1         1 572       0.070450
@<TRIPOS>BOND
     1     1     2 1   
     2     1    21 1   
     3     2     3 1   
     4     2    22 1   
     5     2    23 1   
     6     3     4 ar  
     7     3     8 ar  
     8     4     5 ar  
     9     5     6 ar  
    10     5     9 1   
    11     6     7 ar  
    12     6    24 1   
    13     7     8 ar  
    14     7    25 1   
    15     9    10 1   
    16     9    20 1   
    17    10    11 1   
    18    10    26 1   
    19    10    27 1   
    20    11    12 1   
    21    11    28 1   
    22    11    29 1   
    23    12    13 1   
    24    12    19 1   
    25    13    14 2   
    26    13    15 1   
    27    13    18 2   
    28    15    16 1   
    29    15    17 1   
    30    16    30 1   
    31    16    31 1   
    32    16    32 1   
    33    17    33 1   
    34    17    34 1   
    35    17    35 1   
    36    19    20 1   
    37    19    36 1   
    38    19    37 1   
    39    20    38 1   
    40    20    39 1   
@<TRIPOS>SUBSTRUCTURE
     1 572         1 TEMP              0 ****  ****    0 ROOT
