@<TRIPOS>MOLECULE
573
   41    43     1     0     0
SMALL
abcg2


@<TRIPOS>ATOM
      1 C1           2.0040   -15.4050   -46.1610 c3         1 573      -0.086100
      2 C2           0.6240   -15.9170   -46.5180 c3         1 573       0.144300
      3 C4          -0.4900   -15.1340   -45.8280 c3         1 573       0.104600
      4 O5          -0.4430   -15.2420   -44.3900 os         1 573      -0.229100
      5 N6          -0.8370   -16.5000   -43.9690 ns         1 573      -0.360400
      6 C7          -2.1010   -16.6440   -43.4840 c          1 573       0.649300
      7 O8          -2.9860   -15.7930   -43.6150 o          1 573      -0.594100
      8 C9          -2.3810   -17.9100   -42.8340 cc         1 573      -0.172100
      9 C10         -3.5550   -18.3380   -42.2630 cd         1 573       0.234800
     10 C11         -3.3070   -19.6970   -41.8160 ca         1 573      -0.191800
     11 C12         -4.0480   -20.7330   -41.2380 ca         1 573       0.400900
     12 N13         -3.5050   -21.9190   -40.9890 nb         1 573      -0.664000
     13 C14         -2.2140   -22.1390   -41.2970 ca         1 573       0.335900
     14 C15         -1.4110   -21.1850   -41.8880 ca         1 573       0.110000
     15 C16         -1.9720   -19.9500   -42.1600 ca         1 573       0.093100
     16 O17         -1.3980   -18.9010   -42.7760 os         1 573      -0.151200
     17 N19         -4.7160   -17.6200   -42.2450 nu         1 573      -0.807000
     18 C20         -5.7180   -17.6910   -41.2770 ca         1 573       0.274000
     19 C21         -5.5190   -18.1510   -39.9750 ca         1 573      -0.140000
     20 C22         -6.5670   -18.2040   -39.0640 ca         1 573      -0.065000
     21 C23         -7.8300   -17.7650   -39.4420 ca         1 573       0.193000
     22 C24         -8.0570   -17.2680   -40.7220 ca         1 573      -0.090000
     23 C25         -7.0000   -17.2470   -41.6070 ca         1 573       0.134000
     24 O28          0.4610   -15.7810   -47.9350 oh         1 573      -0.662000
     25 F18         -0.1320   -21.4480   -42.2040 f          1 573      -0.153000
     26 F26         -7.2040   -16.7700   -42.8580 f          1 573      -0.171000
     27 I27         -9.4250   -17.8320   -38.0610 i          1 573      -0.292000
     28 H1           2.1600   -15.4600   -45.0830 hc         1 573       0.047367
     29 H2           2.7710   -16.0040   -46.6530 hc         1 573       0.047367
     30 H3           2.1140   -14.3640   -46.4750 hc         1 573       0.047367
     31 H4           0.5390   -16.9730   -46.2390 h1         1 573       0.036700
     32 H5          -0.3780   -14.0670   -46.0200 h1         1 573       0.071200
     33 H6          -1.4690   -15.4650   -46.1830 h1         1 573       0.071200
     34 H7          -0.0770   -17.0730   -43.6280 hn         1 573       0.345500
     35 H8          -5.0900   -20.6060   -40.9810 h4         1 573       0.041100
     36 H9          -1.8010   -23.1160   -41.0740 h4         1 573       0.045100
     37 H10         -4.6830   -16.7820   -42.8150 hn         1 573       0.543000
     38 H11         -4.5320   -18.4600   -39.6620 ha         1 573       0.131000
     39 H12         -6.3840   -18.5700   -38.0640 ha         1 573       0.136000
     40 H13         -9.0260   -16.9140   -41.0430 ha         1 573       0.150000
     41 H14         -0.3540   -16.2290   -48.1970 ho         1 573       0.442000
@<TRIPOS>BOND
     1     1     2 1   
     2     1    28 1   
     3     1    29 1   
     4     1    30 1   
     5     2     3 1   
     6     2    24 1   
     7     2    31 1   
     8     3     4 1   
     9     3    32 1   
    10     3    33 1   
    11     4     5 1   
    12     5     6 1   
    13     5    34 1   
    14     6     7 2   
    15     6     8 1   
    16     8     9 2   
    17     8    16 1   
    18     9    10 1   
    19     9    17 1   
    20    10    11 ar  
    21    10    15 ar  
    22    11    12 ar  
    23    11    35 1   
    24    12    13 ar  
    25    13    14 ar  
    26    13    36 1   
    27    14    15 ar  
    28    14    25 1   
    29    15    16 1   
    30    17    18 1   
    31    17    37 1   
    32    18    19 ar  
    33    18    23 ar  
    34    19    20 ar  
    35    19    38 1   
    36    20    21 ar  
    37    20    39 1   
    38    21    22 ar  
    39    21    27 1   
    40    22    23 ar  
    41    22    40 1   
    42    23    26 1   
    43    24    41 1   
@<TRIPOS>SUBSTRUCTURE
     1 573         1 TEMP              0 ****  ****    0 ROOT
