@<TRIPOS>MOLECULE
573
   41    43     1     0     0
SMALL
No Charge or Current Charge


@<TRIPOS>ATOM
      1 C1           1.9470   -15.4160   -46.2110 c3         1 573      -0.086100
      2 C2           0.5080   -15.8770   -46.5300 c3         1 573       0.144300
      3 C4          -0.5770   -15.0310   -45.8020 c3         1 573       0.104600
      4 O5          -0.4070   -15.1270   -44.3710 os         1 573      -0.229100
      5 N6          -0.7760   -16.4250   -43.8580 ns         1 573      -0.360400
      6 C7          -2.0680   -16.6190   -43.4030 c          1 573       0.649300
      7 O8          -2.9520   -15.7760   -43.5220 o          1 573      -0.594100
      8 C9          -2.2690   -17.9490   -42.7870 cc         1 573      -0.172100
      9 C10         -3.4410   -18.4210   -42.2270 cd         1 573       0.234800
     10 C11         -3.1910   -19.7640   -41.8130 ca         1 573      -0.191800
     11 C12         -3.9980   -20.7730   -41.2690 ca         1 573       0.400900
     12 N13         -3.4820   -22.0010   -40.9920 nb         1 573      -0.664000
     13 C14         -2.1610   -22.2220   -41.2740 ca         1 573       0.335900
     14 C15         -1.3120   -21.2470   -41.8470 ca         1 573       0.110000
     15 C16         -1.8770   -19.9950   -42.1170 ca         1 573       0.093100
     16 O17         -1.2560   -18.9130   -42.7040 os         1 573      -0.151200
     17 N19         -4.5950   -17.6890   -42.1430 nu         1 573      -0.807000
     18 C20         -5.6970   -17.7050   -41.2740 ca         1 573       0.274000
     19 C21         -5.5780   -18.2360   -39.9750 ca         1 573      -0.140000
     20 C22         -6.6800   -18.2340   -39.0980 ca         1 573      -0.065000
     21 C23         -7.9060   -17.6860   -39.5110 ca         1 573       0.193000
     22 C24         -8.0320   -17.1300   -40.7920 ca         1 573      -0.090000
     23 C25         -6.9320   -17.1320   -41.6660 ca         1 573       0.134000
     24 O28          0.3130   -15.7970   -47.9500 oh         1 573      -0.662000
     25 F18         -0.0150   -21.5140   -42.1320 f          1 573      -0.153000
     26 F26         -7.0700   -16.5830   -42.8970 f          1 573      -0.171000
     27 I27         -9.5980   -17.6810   -38.1600 i          1 573      -0.292000
     28 H1           2.1590   -15.5140   -45.1400 hc         1 573       0.047367
     29 H2           2.6760   -16.0270   -46.7560 hc         1 573       0.047367
     30 H3           2.0940   -14.3670   -46.4970 hc         1 573       0.047367
     31 H4           0.4090   -16.9230   -46.2110 h1         1 573       0.036700
     32 H5          -0.4770   -13.9840   -46.1170 h1         1 573       0.071200
     33 H6          -1.5780   -15.3720   -46.0960 h1         1 573       0.071200
     34 H7          -0.0330   -17.0980   -43.7010 hn         1 573       0.345500
     35 H8          -5.0560   -20.6210   -41.0640 h4         1 573       0.041100
     36 H9          -1.7770   -23.2150   -41.0430 h4         1 573       0.045100
     37 H10         -4.5880   -16.8840   -42.7820 hn         1 573       0.543000
     38 H11         -4.6270   -18.6320   -39.6300 ha         1 573       0.131000
     39 H12         -6.5840   -18.6470   -38.0980 ha         1 573       0.136000
     40 H13         -8.9770   -16.6970   -41.1060 ha         1 573       0.150000
     41 H14         -0.4740   -16.3430   -48.1700 ho         1 573       0.442000
@<TRIPOS>BOND
     1     1     2 1   
     2     1    28 1   
     3     1    29 1   
     4     1    30 1   
     5     2     3 1   
     6     2    24 1   
     7     2    31 1   
     8     3     4 1   
     9     3    32 1   
    10     3    33 1   
    11     4     5 1   
    12     5     6 1   
    13     5    34 1   
    14     6     7 2   
    15     6     8 1   
    16     8     9 2   
    17     8    16 1   
    18     9    10 1   
    19     9    17 1   
    20    10    11 ar  
    21    10    15 ar  
    22    11    12 ar  
    23    11    35 1   
    24    12    13 ar  
    25    13    14 ar  
    26    13    36 1   
    27    14    15 ar  
    28    14    25 1   
    29    15    16 1   
    30    17    18 1   
    31    17    37 1   
    32    18    19 ar  
    33    18    23 ar  
    34    19    20 ar  
    35    19    38 1   
    36    20    21 ar  
    37    20    39 1   
    38    21    22 ar  
    39    21    27 1   
    40    22    23 ar  
    41    22    40 1   
    42    23    26 1   
    43    24    41 1   
@<TRIPOS>SUBSTRUCTURE
     1 573         1 TEMP              0 ****  ****    0 ROOT
