@<TRIPOS>MOLECULE
575
   47    50     1     0     0
SMALL
No Charge or Current Charge


@<TRIPOS>ATOM
      1 C1           4.1710    -1.3830     0.5700 ca         1 575      -0.068000
      2 C2           2.8720    -1.7920     0.2180 ca         1 575      -0.146000
      3 C3           1.8300    -0.8540     0.1320 ca         1 575       0.278000
      4 C4           2.1000     0.5030     0.3900 ca         1 575      -0.146000
      5 C5           3.3990     0.9150     0.7410 ca         1 575      -0.068000
      6 C6           4.4410    -0.0280     0.8360 ca         1 575      -0.096300
      7 C7           5.8520     0.4120     1.2130 c3         1 575       0.217100
      8 N1           6.7990     0.3340     0.0810 n3         1 575      -0.718600
      9 C8           8.1910     0.7040     0.4010 c5         1 575       0.157300
     10 C9           8.8650     0.6030    -0.9930 c5         1 575      -0.079400
     11 C10          7.7160     0.9600    -1.9900 c5         1 575      -0.079400
     12 C11          6.4870     1.2020    -1.0740 c5         1 575       0.157300
     13 N2           0.5530    -1.2870    -0.2230 nu         1 575      -0.786000
     14 C12         -0.7100    -0.7570     0.0340 c2         1 575       0.165000
     15 C13         -1.8910    -1.3940    -0.2540 cc         1 575      -0.327400
     16 C14         -3.2010    -0.7690     0.0390 ca         1 575       0.067200
     17 C15         -3.3270     0.5120     0.6370 ca         1 575      -0.127000
     18 C16         -4.5890     1.0690     0.8960 ca         1 575       0.023100
     19 C17         -5.7530     0.3670     0.5680 ca         1 575      -0.120000
     20 C18         -5.6520    -0.8990    -0.0230 ca         1 575      -0.035000
     21 C19         -4.3860    -1.4680    -0.2870 ca         1 575      -0.174600
     22 C20         -4.3090    -2.8210    -0.9170 c          1 575       0.593600
     23 O1          -5.2950    -3.4730    -1.2240 o          1 575      -0.532000
     24 N3          -3.0670    -3.3110    -1.1380 ns         1 575      -0.454500
     25 C21         -1.8620    -2.7530    -0.8760 c          1 575       0.612200
     26 O2          -0.8520    -3.3830    -1.1540 o          1 575      -0.599000
     27 Br1         -4.7180     2.7980     1.7030 br         1 575      -0.094100
     28 H1           4.9710    -2.1180     0.6320 ha         1 575       0.125500
     29 H2           2.6780    -2.8420     0.0160 ha         1 575       0.122000
     30 H4           1.3140     1.2460     0.3090 ha         1 575       0.122000
     31 H5           3.5950     1.9670     0.9350 ha         1 575       0.125500
     32 H7           5.8180     1.4370     1.6060 h1         1 575       0.039200
     33 H7A          6.2030    -0.2310     2.0320 h1         1 575       0.039200
     34 H8           8.2520     1.7270     0.7980 h1         1 575       0.036700
     35 H8A          8.6510     0.0240     1.1330 h1         1 575       0.036700
     36 H9           9.7220     1.2810    -1.0790 hc         1 575       0.047950
     37 H9A          9.2360    -0.4120    -1.1750 hc         1 575       0.047950
     38 H10          7.9460     1.8420    -2.5980 hc         1 575       0.047950
     39 H10A         7.5310     0.1300    -2.6820 hc         1 575       0.047950
     40 H11          5.5450     0.9280    -1.5690 h1         1 575       0.036700
     41 H11A         6.4200     2.2580    -0.7720 h1         1 575       0.036700
     42 HN2          0.5130    -2.2440    -0.6000 hn         1 575       0.544000
     43 H12         -0.6900     0.2280     0.4990 h4         1 575       0.194000
     44 H15         -2.4650     1.1050     0.9140 ha         1 575       0.120000
     45 H17         -6.7300     0.8010     0.7690 ha         1 575       0.137000
     46 H18         -6.5640    -1.4380    -0.2750 ha         1 575       0.141000
     47 HN3         -3.0330    -4.2250    -1.5590 hn         1 575       0.332500
@<TRIPOS>BOND
     1     1     2 ar  
     2     1     6 ar  
     3     1    28 1   
     4     2     3 ar  
     5     2    29 1   
     6     3     4 ar  
     7     3    13 1   
     8     4     5 ar  
     9     4    30 1   
    10     5     6 ar  
    11     5    31 1   
    12     6     7 1   
    13     7     8 1   
    14     7    32 1   
    15     7    33 1   
    16     8     9 1   
    17     8    12 1   
    18     9    10 1   
    19     9    34 1   
    20     9    35 1   
    21    10    11 1   
    22    10    36 1   
    23    10    37 1   
    24    11    12 1   
    25    11    38 1   
    26    11    39 1   
    27    12    40 1   
    28    12    41 1   
    29    13    14 1   
    30    13    42 1   
    31    14    15 2   
    32    14    43 1   
    33    15    16 1   
    34    15    25 1   
    35    16    17 ar  
    36    16    21 ar  
    37    17    18 ar  
    38    17    44 1   
    39    18    19 ar  
    40    18    27 1   
    41    19    20 ar  
    42    19    45 1   
    43    20    21 ar  
    44    20    46 1   
    45    21    22 1   
    46    22    23 2   
    47    22    24 1   
    48    24    25 1   
    49    24    47 1   
    50    25    26 2   
@<TRIPOS>SUBSTRUCTURE
     1 575         1 TEMP              0 ****  ****    0 ROOT
