@<TRIPOS>MOLECULE
575
   47    50     1     0     0
SMALL
abcg2


@<TRIPOS>ATOM
      1 C1           4.2090    -1.3150     0.2810 ca         1 575      -0.068000
      2 C2           2.9420    -1.7830    -0.0150 ca         1 575      -0.146000
      3 C3           1.8230    -0.9820     0.2130 ca         1 575       0.278000
      4 C4           1.9960     0.2940     0.7380 ca         1 575      -0.146000
      5 C5           3.2750     0.7480     1.0300 ca         1 575      -0.068000
      6 C6           4.3970    -0.0420     0.8150 ca         1 575      -0.096300
      7 C7           5.7760     0.4560     1.1550 c3         1 575       0.217100
      8 N1           6.6980     0.3130     0.0550 n3         1 575      -0.718600
      9 C8           8.0590     0.6880     0.3990 c5         1 575       0.157300
     10 C9           8.7700     0.8310    -0.9520 c5         1 575      -0.079400
     11 C10          7.6250     0.9910    -1.9750 c5         1 575      -0.079400
     12 C11          6.3720     1.1110    -1.1130 c5         1 575       0.157300
     13 N2           0.5710    -1.5180    -0.1110 nu         1 575      -0.786000
     14 C12         -0.6100    -0.9500     0.0680 c2         1 575       0.165000
     15 C13         -1.8390    -1.5010    -0.2390 cc         1 575      -0.327400
     16 C14         -3.0780    -0.7740    -0.0080 ca         1 575       0.067200
     17 C15         -3.1090     0.5500     0.4580 ca         1 575      -0.127000
     18 C16         -4.3120     1.1870     0.6690 ca         1 575       0.023100
     19 C17         -5.5340     0.5620     0.4300 ca         1 575      -0.120000
     20 C18         -5.5130    -0.7320    -0.0370 ca         1 575      -0.035000
     21 C19         -4.3080    -1.4000    -0.2590 ca         1 575      -0.174600
     22 C20         -4.3630    -2.7740    -0.7710 c          1 575       0.593600
     23 O1          -5.3970    -3.3750    -0.9960 o          1 575      -0.532000
     24 N3          -3.1490    -3.3680    -1.0010 ns         1 575      -0.454500
     25 C21         -1.8980    -2.8420    -0.7770 c          1 575       0.612200
     26 O2          -0.9130    -3.5320    -1.0330 o          1 575      -0.599000
     27 BR1         -4.3070     2.9650     1.2980 br         1 575      -0.094100
     28 H1           5.0670    -1.9480     0.0920 ha         1 575       0.125500
     29 H2           2.8180    -2.7790    -0.4250 ha         1 575       0.122000
     30 H4           1.1610     0.9560     0.9210 ha         1 575       0.122000
     31 H5           3.3920     1.7470     1.4320 ha         1 575       0.125500
     32 H7           5.7080     1.5030     1.4990 h1         1 575       0.039200
     33 H7A          6.1660    -0.1180     2.0020 h1         1 575       0.039200
     34 H8           8.0840     1.6470     0.9430 h1         1 575       0.036700
     35 H8A          8.5150    -0.0610     1.0500 h1         1 575       0.036700
     36 H9           9.4410     1.6890    -0.9490 hc         1 575       0.047950
     37 H9A          9.3760    -0.0470    -1.1770 hc         1 575       0.047950
     38 H10          7.7540     1.8560    -2.6240 hc         1 575       0.047950
     39 H10A         7.5600     0.1120    -2.6170 hc         1 575       0.047950
     40 H11          5.4730     0.7420    -1.6090 h1         1 575       0.036700
     41 H11A         6.1890     2.1670    -0.8460 h1         1 575       0.036700
     42 HN2          0.5500    -2.4490    -0.5220 hn         1 575       0.544000
     43 H12         -0.5800     0.0360     0.5060 h4         1 575       0.194000
     44 H15         -2.1920     1.0900     0.6490 ha         1 575       0.120000
     45 H17         -6.4730     1.0700     0.6000 ha         1 575       0.137000
     46 H18         -6.4460    -1.2400    -0.2380 ha         1 575       0.141000
     47 HN3         -3.1720    -4.3120    -1.3690 hn         1 575       0.332500
@<TRIPOS>BOND
     1     1     2 ar  
     2     1     6 ar  
     3     1    28 1   
     4     2     3 ar  
     5     2    29 1   
     6     3     4 ar  
     7     3    13 1   
     8     4     5 ar  
     9     4    30 1   
    10     5     6 ar  
    11     5    31 1   
    12     6     7 1   
    13     7     8 1   
    14     7    32 1   
    15     7    33 1   
    16     8     9 1   
    17     8    12 1   
    18     9    10 1   
    19     9    34 1   
    20     9    35 1   
    21    10    11 1   
    22    10    36 1   
    23    10    37 1   
    24    11    12 1   
    25    11    38 1   
    26    11    39 1   
    27    12    40 1   
    28    12    41 1   
    29    13    14 1   
    30    13    42 1   
    31    14    15 2   
    32    14    43 1   
    33    15    16 1   
    34    15    25 1   
    35    16    17 ar  
    36    16    21 ar  
    37    17    18 ar  
    38    17    44 1   
    39    18    19 ar  
    40    18    27 1   
    41    19    20 ar  
    42    19    45 1   
    43    20    21 ar  
    44    20    46 1   
    45    21    22 1   
    46    22    23 2   
    47    22    24 1   
    48    24    25 1   
    49    24    47 1   
    50    25    26 2   
@<TRIPOS>SUBSTRUCTURE
     1 575         1 TEMP              0 ****  ****    0 ROOT
