@<TRIPOS>MOLECULE
576
   38    40     1     0     0
SMALL
No Charge or Current Charge


@<TRIPOS>ATOM
      1 O1           4.4190     1.4370     0.3830 oh         1 576      -0.653000
      2 C2           3.9460     0.1030     0.1730 c3         1 576       0.178300
      3 C17          4.7850    -0.5260    -0.9570 c3         1 576      -0.236400
      4 C18          6.2390    -0.6460    -0.4950 c          1 576       0.725000
      5 O20          6.5880    -1.6770     0.0580 o          1 576      -0.736500
      6 O19          6.9470     0.3430    -0.6070 o          1 576      -0.736500
      7 C3           2.4340     0.1340    -0.1580 c3         1 576      -0.111400
      8 C4           1.5450     0.6640     0.9920 c3         1 576      -0.036100
      9 C5           0.0650     0.6110     0.6410 ca         1 576      -0.050300
     10 C6          -0.7080    -0.5170     0.9960 ca         1 576      -0.099000
     11 C7          -2.0650    -0.5280     0.6500 ca         1 576      -0.083300
     12 C1          -3.1480    -1.5880     0.8900 c5         1 576       0.009200
     13 C16         -4.4250    -1.0030     0.2720 ca         1 576      -0.086300
     14 C15         -5.7220    -1.5260     0.1920 ca         1 576      -0.099000
     15 C14         -6.7100    -0.7480    -0.4470 ca         1 576      -0.119000
     16 C13         -6.3890     0.5200    -0.9860 ca         1 576      -0.117000
     17 C12         -5.0750     1.0260    -0.8940 ca         1 576      -0.092000
     18 C11         -4.0890     0.2460    -0.2550 cp         1 576      -0.024000
     19 C8          -2.6710     0.5310    -0.0280 cp         1 576      -0.064000
     20 C9          -1.9090     1.6600    -0.3870 ca         1 576      -0.083000
     21 C10         -0.5400     1.6920    -0.0490 ca         1 576      -0.116000
     22 H1           5.3630     1.4270     0.1010 ho         1 576       0.419000
     23 H2           4.0880    -0.5000     1.0830 h1         1 576       0.086700
     24 H171         4.3620    -1.5200    -1.1490 hc         1 576       0.020200
     25 H172         4.7040     0.1540    -1.8140 hc         1 576       0.020200
     26 H31C         2.2670     0.7460    -1.0540 hc         1 576       0.035200
     27 H32C         2.1060    -0.8830    -0.4070 hc         1 576       0.035200
     28 H41C         1.7390     0.0740     1.8970 hc         1 576       0.053700
     29 H42C         1.8340     1.6940     1.2330 hc         1 576       0.053700
     30 H6          -0.2640    -1.3600     1.5210 ha         1 576       0.117000
     31 H10          0.0570     2.5590    -0.3250 ha         1 576       0.115000
     32 H11C        -2.8810    -2.5420     0.4230 hc         1 576       0.067700
     33 H12C        -3.2790    -1.7880     1.9590 hc         1 576       0.067700
     34 H15         -5.9590    -2.5020     0.6100 ha         1 576       0.109000
     35 H14         -7.7270    -1.1260    -0.5250 ha         1 576       0.104000
     36 H13         -7.1610     1.1090    -1.4760 ha         1 576       0.105000
     37 H12         -4.8270     2.0000    -1.3090 ha         1 576       0.114000
     38 H9          -2.3670     2.4920    -0.9170 ha         1 576       0.108000
@<TRIPOS>BOND
     1     1     2 1   
     2     1    22 1   
     3     2     3 1   
     4     2     7 1   
     5     2    23 1   
     6     3     4 1   
     7     3    24 1   
     8     3    25 1   
     9     4     5 1   
    10     4     6 1   
    11     7     8 1   
    12     7    26 1   
    13     7    27 1   
    14     8     9 1   
    15     8    28 1   
    16     8    29 1   
    17     9    10 ar  
    18     9    21 ar  
    19    10    11 ar  
    20    10    30 1   
    21    11    12 1   
    22    11    19 ar  
    23    12    13 1   
    24    12    32 1   
    25    12    33 1   
    26    13    14 ar  
    27    13    18 ar  
    28    14    15 ar  
    29    14    34 1   
    30    15    16 ar  
    31    15    35 1   
    32    16    17 ar  
    33    16    36 1   
    34    17    18 ar  
    35    17    37 1   
    36    18    19 1   
    37    19    20 ar  
    38    20    21 ar  
    39    20    38 1   
    40    21    31 1   
@<TRIPOS>SUBSTRUCTURE
     1 576         1 TEMP              0 ****  ****    0 ROOT
