@<TRIPOS>MOLECULE
576
   38    40     1     0     0
SMALL
abcg2


@<TRIPOS>ATOM
      1 O1           4.3960     1.2280     0.8170 oh         1 576      -0.653000
      2 C2           3.9010     0.0300     0.2410 c3         1 576       0.178300
      3 C17          4.7370    -0.3870    -0.9600 c3         1 576      -0.236400
      4 C18          6.2150    -0.6460    -0.6190 c          1 576       0.725000
      5 O20          6.4420    -1.3030     0.4170 o          1 576      -0.736500
      6 O19          7.0690    -0.2110    -1.4190 o          1 576      -0.736500
      7 C3           2.4210     0.1440    -0.1120 c3         1 576      -0.111400
      8 C4           1.5390     0.5430     1.0720 c3         1 576      -0.036100
      9 C5           0.0810     0.5430     0.7070 ca         1 576      -0.050300
     10 C6          -0.7440    -0.5230     1.0650 ca         1 576      -0.099000
     11 C7          -2.0750    -0.5230     0.6880 ca         1 576      -0.083300
     12 C1          -3.1410    -1.5480     0.9630 c5         1 576       0.009200
     13 C16         -4.3480    -0.9550     0.2870 ca         1 576      -0.086300
     14 C15         -5.6360    -1.4500     0.2000 ca         1 576      -0.099000
     15 C14         -6.5960    -0.7140    -0.4900 ca         1 576      -0.119000
     16 C13         -6.2650     0.5010    -1.0850 ca         1 576      -0.117000
     17 C12         -4.9720     1.0030    -0.9980 ca         1 576      -0.092000
     18 C11         -4.0160     0.2690    -0.3080 cp         1 576      -0.024000
     19 C8          -2.6020     0.5370    -0.0560 cp         1 576      -0.064000
     20 C9          -1.7940     1.6050    -0.4210 ca         1 576      -0.083000
     21 C10         -0.4610     1.5980    -0.0350 ca         1 576      -0.116000
     22 H1           4.3060     1.9290     0.1620 ho         1 576       0.419000
     23 H2           4.0160    -0.7310     1.0180 h1         1 576       0.086700
     24 H171         4.3180    -1.3120    -1.3730 hc         1 576       0.020200
     25 H172         4.6500     0.3660    -1.7510 hc         1 576       0.020200
     26 H31C         2.2910     0.8680    -0.9260 hc         1 576       0.035200
     27 H32C         2.0840    -0.8200    -0.5040 hc         1 576       0.035200
     28 H41C         1.7080    -0.1540     1.8980 hc         1 576       0.053700
     29 H42C         1.8320     1.5330     1.4290 hc         1 576       0.053700
     30 H6          -0.3350    -1.3480     1.6390 ha         1 576       0.117000
     31 H10          0.1760     2.4290    -0.3150 ha         1 576       0.115000
     32 H11C        -2.8840    -2.5290     0.5540 hc         1 576       0.067700
     33 H12C        -3.3020    -1.6940     2.0350 hc         1 576       0.067700
     34 H15         -5.9000    -2.3960     0.6570 ha         1 576       0.109000
     35 H14         -7.6080    -1.0890    -0.5660 ha         1 576       0.104000
     36 H13         -7.0220     1.0590    -1.6210 ha         1 576       0.105000
     37 H12         -4.7210     1.9500    -1.4620 ha         1 576       0.114000
     38 H9          -2.1890     2.4380    -0.9910 ha         1 576       0.108000
@<TRIPOS>BOND
     1     1     2 1   
     2     1    22 1   
     3     2     3 1   
     4     2     7 1   
     5     2    23 1   
     6     3     4 1   
     7     3    24 1   
     8     3    25 1   
     9     4     5 1   
    10     4     6 1   
    11     7     8 1   
    12     7    26 1   
    13     7    27 1   
    14     8     9 1   
    15     8    28 1   
    16     8    29 1   
    17     9    10 ar  
    18     9    21 ar  
    19    10    11 ar  
    20    10    30 1   
    21    11    12 1   
    22    11    19 ar  
    23    12    13 1   
    24    12    32 1   
    25    12    33 1   
    26    13    14 ar  
    27    13    18 ar  
    28    14    15 ar  
    29    14    34 1   
    30    15    16 ar  
    31    15    35 1   
    32    16    17 ar  
    33    16    36 1   
    34    17    18 ar  
    35    17    37 1   
    36    18    19 1   
    37    19    20 ar  
    38    20    21 ar  
    39    20    38 1   
    40    21    31 1   
@<TRIPOS>SUBSTRUCTURE
     1 576         1 TEMP              0 ****  ****    0 ROOT
