@<TRIPOS>MOLECULE
577
   43    46     1     0     0
SMALL
bcc


@<TRIPOS>ATOM
      1 N2           1.2330    -0.0150    -0.0590 na         1 577      -0.276900
      2 C2           0.0640     0.0600     0.6130 cc         1 577       0.464000
      3 N1          -0.9470     0.0890    -0.2240 nd         1 577      -0.664000
      4 C4          -0.4200     0.0400    -1.4750 cd         1 577       0.394800
      5 C5           0.9590    -0.0080    -1.3980 cc         1 577      -0.160600
      6 C14          3.1940    -0.7340    -2.2060 ca         1 577      -0.239800
      7 C7           2.0170    -0.0130    -2.4000 ca         1 577       0.025000
      8 C16          1.9070     0.7280    -3.5760 ca         1 577      -0.239800
      9 C10          2.9510     0.7010    -4.4850 ca         1 577       0.403700
     10 N5           4.0720     0.0110    -4.3030 nb         1 577      -0.658000
     11 C18          4.1800    -0.6860    -3.1790 ca         1 577       0.403700
     12 C15         -3.3120     0.7490    -3.7610 ca         1 577      -0.176000
     13 C8          -2.9810    -0.0430    -4.8440 ca         1 577       0.139900
     14 C17         -1.8380    -0.8200    -4.8610 ca         1 577      -0.176000
     15 C11         -1.0000    -0.7920    -3.7580 ca         1 577      -0.081500
     16 C13         -1.2900     0.0090    -2.6530 ca         1 577      -0.130500
     17 C19         -2.4620     0.7670    -2.6670 ca         1 577      -0.081500
     18 C1          -0.0490     0.1090     2.0660 ca         1 577      -0.094500
     19 C9          -1.2730     0.4650     2.6380 ca         1 577      -0.120500
     20 C3          -1.4100     0.5360     4.0120 ca         1 577      -0.065500
     21 C12         -0.3250     0.2340     4.8230 ca         1 577      -0.062500
     22 C20          0.8980    -0.1150     4.2770 ca         1 577      -0.065500
     23 C6           1.0300    -0.1840     2.8990 ca         1 577      -0.120500
     24 S1          -0.4890     0.3680     6.6030 sx         1 577       0.211400
     25 O1           0.9030     0.3350     7.1790 o          1 577      -0.485200
     26 C21         -1.1930    -1.2720     6.8880 c3         1 577      -0.060800
     27 HN2          2.1580     0.0300     0.3400 hn         1 577       0.309700
     28 H14          3.3460    -1.3410    -1.3230 ha         1 577       0.146500
     29 H16          1.0340     1.3330    -3.7800 ha         1 577       0.146500
     30 H10          2.8780     1.2750    -5.4020 h4         1 577       0.023100
     31 H18          5.0980    -1.2460    -3.0390 h4         1 577       0.023100
     32 H15         -4.2160     1.3440    -3.7710 ha         1 577       0.151000
     33 H17         -1.6120    -1.4470    -5.7140 ha         1 577       0.151000
     34 H11         -0.1190    -1.4200    -3.7560 ha         1 577       0.144000
     35 H19         -2.7100     1.3870    -1.8150 ha         1 577       0.144000
     36 H9          -2.1140     0.7030     2.0010 ha         1 577       0.141500
     37 H3          -2.3580     0.8360     4.4410 ha         1 577       0.149000
     38 H20          1.7440    -0.3350     4.9140 ha         1 577       0.149000
     39 H6           1.9870    -0.4820     2.4900 ha         1 577       0.141500
     40 H211        -1.3240    -1.3860     7.9630 h1         1 577       0.079700
     41 H212        -2.1600    -1.3460     6.3950 h1         1 577       0.079700
     42 H213        -0.5100    -2.0300     6.5070 h1         1 577       0.079700
     43 F1          -3.7980    -0.0640    -5.9080 f          1 577      -0.143900
@<TRIPOS>BOND
     1     1     2 1   
     2     1     5 1   
     3     1    27 1   
     4     2     3 2   
     5     2    18 1   
     6     3     4 1   
     7     4     5 2   
     8     4    16 1   
     9     5     7 1   
    10     6     7 ar  
    11     6    11 ar  
    12     6    28 1   
    13     7     8 ar  
    14     8     9 ar  
    15     8    29 1   
    16     9    10 ar  
    17     9    30 1   
    18    10    11 ar  
    19    11    31 1   
    20    12    13 ar  
    21    12    17 ar  
    22    12    32 1   
    23    13    14 ar  
    24    13    43 1   
    25    14    15 ar  
    26    14    33 1   
    27    15    16 ar  
    28    15    34 1   
    29    16    17 ar  
    30    17    35 1   
    31    18    19 ar  
    32    18    23 ar  
    33    19    20 ar  
    34    19    36 1   
    35    20    21 ar  
    36    20    37 1   
    37    21    22 ar  
    38    21    24 1   
    39    22    23 ar  
    40    22    38 1   
    41    23    39 1   
    42    24    25 2   
    43    24    26 1   
    44    26    40 1   
    45    26    41 1   
    46    26    42 1   
@<TRIPOS>SUBSTRUCTURE
     1 577         1 TEMP              0 ****  ****    0 ROOT
