@<TRIPOS>MOLECULE
577
   43    46     1     0     0
SMALL
No Charge or Current Charge


@<TRIPOS>ATOM
      1 N2           1.2080    -0.0820     0.0140 na         1 577      -0.276500
      2 C2           0.0060     0.1400     0.6400 cc         1 577       0.464000
      3 N1          -0.9650     0.2780    -0.2530 nd         1 577      -0.664000
      4 C4          -0.3800     0.1620    -1.5030 cd         1 577       0.329500
      5 C5           0.9750    -0.0490    -1.3400 cc         1 577      -0.146000
      6 C14          2.9830    -1.1120    -2.3600 ca         1 577      -0.156500
      7 C7           1.9810    -0.1280    -2.3950 ca         1 577       0.025000
      8 C16          2.0250     0.8100    -3.4420 ca         1 577      -0.156500
      9 C10          3.0330     0.7100    -4.4150 ca         1 577       0.338400
     10 N5           3.9860    -0.2500    -4.3910 nb         1 577      -0.658000
     11 C18          3.9550    -1.1410    -3.3740 ca         1 577       0.338400
     12 C15         -3.3560     0.6360    -3.8280 ca         1 577      -0.158000
     13 C8          -2.8980     0.0390    -5.0080 ca         1 577       0.175000
     14 C17         -1.6220    -0.5350    -5.0550 ca         1 577      -0.158000
     15 C11         -0.7900    -0.4970    -3.9220 ca         1 577      -0.063500
     16 C13         -1.2170     0.1390    -2.7310 ca         1 577      -0.130500
     17 C19         -2.5270     0.6750    -2.6930 ca         1 577      -0.063500
     18 C1          -0.1710     0.2020     2.1020 ca         1 577      -0.094500
     19 C9          -1.4510     0.4370     2.6570 ca         1 577      -0.102500
     20 C3          -1.6330     0.4970     4.0500 ca         1 577      -0.047500
     21 C12         -0.5370     0.3240     4.9100 ca         1 577      -0.062500
     22 C20          0.7410     0.0900     4.3760 ca         1 577      -0.047500
     23 C6           0.9230     0.0290     2.9830 ca         1 577      -0.102500
     24 S1          -0.7880     0.3960     6.7240 sx         1 577       0.238200
     25 O1           0.4580     1.0060     7.3430 o          1 577      -0.512000
     26 C21         -0.7380    -1.4310     7.0340 c3         1 577      -0.060800
     27 HN2          2.0980    -0.2040     0.4760 hn         1 577       0.360000
     28 H14          3.0090    -1.8530    -1.5670 ha         1 577       0.128500
     29 H16          1.2930     1.6100    -3.5050 ha         1 577       0.128500
     30 H10          3.0810     1.4230    -5.2370 h4         1 577       0.023100
     31 H18          4.7360    -1.9010    -3.3710 h4         1 577       0.023100
     32 H15         -4.3540     1.0670    -3.7910 ha         1 577       0.133000
     33 H17         -1.2810    -1.0230    -5.9650 ha         1 577       0.133000
     34 H11          0.1710    -0.9990    -3.9750 ha         1 577       0.126000
     35 H19         -2.9040     1.1430    -1.7860 ha         1 577       0.126000
     36 H9          -2.3140     0.5740     2.0090 ha         1 577       0.123500
     37 H3          -2.6250     0.6780     4.4590 ha         1 577       0.131000
     38 H20          1.5920    -0.0460     5.0390 ha         1 577       0.131000
     39 H6           1.9240    -0.1540     2.6010 ha         1 577       0.123500
     40 H211        -0.8100    -1.6020     8.1150 h1         1 577       0.079700
     41 H212        -1.5860    -1.8950     6.5170 h1         1 577       0.079700
     42 H213         0.2080    -1.8280     6.6480 h1         1 577       0.079700
     43 F1          -3.6960    -0.0030    -6.0970 f          1 577      -0.179000
@<TRIPOS>BOND
     1     1     2 1   
     2     1     5 1   
     3     1    27 1   
     4     2     3 2   
     5     2    18 1   
     6     3     4 1   
     7     4     5 2   
     8     4    16 1   
     9     5     7 1   
    10     6     7 ar  
    11     6    11 ar  
    12     6    28 1   
    13     7     8 ar  
    14     8     9 ar  
    15     8    29 1   
    16     9    10 ar  
    17     9    30 1   
    18    10    11 ar  
    19    11    31 1   
    20    12    13 ar  
    21    12    17 ar  
    22    12    32 1   
    23    13    14 ar  
    24    13    43 1   
    25    14    15 ar  
    26    14    33 1   
    27    15    16 ar  
    28    15    34 1   
    29    16    17 ar  
    30    17    35 1   
    31    18    19 ar  
    32    18    23 ar  
    33    19    20 ar  
    34    19    36 1   
    35    20    21 ar  
    36    20    37 1   
    37    21    22 ar  
    38    21    24 1   
    39    22    23 ar  
    40    22    38 1   
    41    23    39 1   
    42    24    25 2   
    43    24    26 1   
    44    26    40 1   
    45    26    41 1   
    46    26    42 1   
@<TRIPOS>SUBSTRUCTURE
     1 577         1 TEMP              0 ****  ****    0 ROOT
