@<TRIPOS>MOLECULE
578
   56    57     1     0     0
SMALL
No Charge or Current Charge


@<TRIPOS>ATOM
      1 C27         38.2760    14.8360    67.0240 ca         1 578      -0.082000
      2 C28         39.3960    14.4080    67.7600 ca         1 578      -0.126500
      3 C29         39.4250    13.1170    68.3130 ca         1 578      -0.132000
      4 C30         38.3340    12.2520    68.1280 ca         1 578      -0.126500
      5 C31         37.2130    12.6770    67.3930 ca         1 578      -0.082000
      6 C26         37.1770    13.9730    66.8380 ca         1 578      -0.080300
      7 C23         35.9620    14.4370    66.0450 c3         1 578       0.228900
      8 O22         36.1710    14.1220    64.6600 os         1 578      -0.445100
      9 C20         35.1930    14.4710    63.7820 c          1 578       0.625100
     10 O21         34.1400    15.0200    64.0710 o          1 578      -0.617000
     11 N19         35.5700    14.0860    62.5250 ns         1 578      -0.459900
     12 C15         34.7690    14.2490    61.2740 c3         1 578      -0.213300
     13 C16         35.0530    15.6010    60.5360 c3         1 578      -0.039700
     14 C18         34.3230    16.7880    61.2070 c3         1 578      -0.080600
     15 C17         36.5590    15.9260    60.3620 c3         1 578      -0.080600
     16 P14         34.7590    12.7230    60.1700 p5         1 578       1.421400
     17 O24         33.7910    12.8780    59.0390 o          1 578      -0.835500
     18 O25         34.4690    11.4990    60.9810 o          1 578      -0.835500
     19 O13         36.2820    12.7340    59.6280 os         1 578      -0.615400
     20 C1          37.1300    11.5620    59.7750 c3         1 578       0.130600
     21 C2          37.6390    11.3140    61.2460 c          1 578       0.711000
     22 O12         38.0780    10.2030    61.5210 o          1 578      -0.731500
     23 O11         37.6270    12.2370    62.0530 o          1 578      -0.731500
     24 C3          38.3150    11.7230    58.8250 ca         1 578      -0.011300
     25 C8          38.5280    10.7940    57.7860 ca         1 578      -0.070000
     26 C4          39.2070    12.8040    58.9760 ca         1 578      -0.066000
     27 C5          40.2970    12.9510    58.1030 ca         1 578      -0.144000
     28 C6          40.5040    12.0210    57.0710 ca         1 578      -0.147000
     29 C7          39.6200    10.9370    56.9060 ca         1 578      -0.119300
     30 C9          39.8350     9.9320    55.7820 c3         1 578       0.206100
     31 N10         40.5790     8.7540    56.2520 n8         1 578      -0.982200
     32 H27         38.2620    15.8360    66.5970 ha         1 578       0.136000
     33 H28         40.2410    15.0790    67.9010 ha         1 578       0.101500
     34 H29         40.2910    12.7870    68.8810 ha         1 578       0.087000
     35 H30         38.3550    11.2510    68.5540 ha         1 578       0.101500
     36 H31         36.3730    12.0000    67.2520 ha         1 578       0.136000
     37 H231        35.0630    13.9350    66.4260 h1         1 578       0.038700
     38 H232        35.8290    15.5180    66.1810 h1         1 578       0.038700
     39 HN19        36.4400    13.5490    62.4800 hn         1 578       0.391500
     40 H15         33.7120    14.2530    61.5650 h1         1 578       0.064700
     41 H16         34.6250    15.5170    59.5290 hc         1 578       0.051700
     42 H181        34.7390    16.9970    62.2000 hc         1 578       0.021867
     43 H182        34.4260    17.6960    60.6010 hc         1 578       0.021867
     44 H183        33.2520    16.5780    61.3170 hc         1 578       0.021867
     45 H171        36.6840    16.8600    59.8000 hc         1 578       0.021867
     46 H172        37.0550    16.0500    61.3320 hc         1 578       0.021867
     47 H173        37.0790    15.1400    59.8060 hc         1 578       0.021867
     48 H1          36.5720    10.6600    59.4880 h1         1 578       0.065700
     49 H8          37.8450     9.9570    57.6610 ha         1 578       0.121000
     50 H4          39.0500    13.5290    59.7710 ha         1 578       0.136000
     51 H5          40.9810    13.7880    58.2250 ha         1 578       0.080000
     52 H6          41.3490    12.1440    56.3990 ha         1 578       0.068000
     53 H91         38.8660     9.6010    55.3840 h1         1 578       0.016200
     54 H92         40.4010    10.4000    54.9650 h1         1 578       0.016200
     55 H101        40.7890     8.1540    55.4460 hn         1 578       0.374500
     56 H102        41.5000     9.0650    56.5780 hn         1 578       0.374500
@<TRIPOS>BOND
     1     1     2 ar  
     2     1     6 ar  
     3     1    32 1   
     4     2     3 ar  
     5     2    33 1   
     6     3     4 ar  
     7     3    34 1   
     8     4     5 ar  
     9     4    35 1   
    10     5     6 ar  
    11     5    36 1   
    12     6     7 1   
    13     7     8 1   
    14     7    37 1   
    15     7    38 1   
    16     8     9 1   
    17     9    10 2   
    18     9    11 1   
    19    11    12 1   
    20    11    39 1   
    21    12    13 1   
    22    12    16 1   
    23    12    40 1   
    24    13    14 1   
    25    13    15 1   
    26    13    41 1   
    27    14    42 1   
    28    14    43 1   
    29    14    44 1   
    30    15    45 1   
    31    15    46 1   
    32    15    47 1   
    33    16    17 1   
    34    16    18 1   
    35    16    19 1   
    36    19    20 1   
    37    20    21 1   
    38    20    24 1   
    39    20    48 1   
    40    21    22 1   
    41    21    23 1   
    42    24    25 ar  
    43    24    26 ar  
    44    25    29 ar  
    45    25    49 1   
    46    26    27 ar  
    47    26    50 1   
    48    27    28 ar  
    49    27    51 1   
    50    28    29 ar  
    51    28    52 1   
    52    29    30 1   
    53    30    31 1   
    54    30    53 1   
    55    30    54 1   
    56    31    55 1   
    57    31    56 1   
@<TRIPOS>SUBSTRUCTURE
     1 578         1 TEMP              0 ****  ****    0 ROOT
