@<TRIPOS>MOLECULE
578
   56    57     1     0     0
SMALL
abcg2


@<TRIPOS>ATOM
      1 C27         37.5580    13.6630    67.5400 ca         1 578      -0.082000
      2 C28         38.7630    13.3250    68.1510 ca         1 578      -0.126500
      3 C29         39.7020    12.5630    67.4650 ca         1 578      -0.132000
      4 C30         39.4280    12.1380    66.1660 ca         1 578      -0.126500
      5 C31         38.2210    12.4680    65.5620 ca         1 578      -0.082000
      6 C26         37.2750    13.2350    66.2450 ca         1 578      -0.080300
      7 C23         35.9600    13.5750    65.6040 c3         1 578       0.228900
      8 O22         36.2310    14.0810    64.2840 os         1 578      -0.445100
      9 C20         35.1640    14.2530    63.4590 c          1 578       0.625100
     10 O21         34.0050    14.1200    63.8320 o          1 578      -0.617000
     11 N19         35.5810    14.5870    62.2300 ns         1 578      -0.459900
     12 C15         34.6780    14.7830    61.1070 c3         1 578      -0.213300
     13 C16         34.6570    16.2440    60.6130 c3         1 578      -0.039700
     14 C18         34.1160    17.1690    61.7050 c3         1 578      -0.080600
     15 C17         36.0140    16.7380    60.1110 c3         1 578      -0.080600
     16 P14         35.0060    13.4940    59.8180 p5         1 578       1.421400
     17 O24         34.4460    13.9630    58.5070 o          1 578      -0.835500
     18 O25         34.5860    12.1580    60.3660 o          1 578      -0.835500
     19 O13         36.6370    13.5380    59.6950 os         1 578      -0.615400
     20 C1          37.4920    12.4770    60.1260 c3         1 578       0.130600
     21 C2          38.3490    12.8700    61.3670 c          1 578       0.711000
     22 O12         38.9630    11.9200    61.9030 o          1 578      -0.731500
     23 O11         38.3640    14.0740    61.7260 o          1 578      -0.731500
     24 C3          38.3970    12.0770    58.9850 ca         1 578      -0.011300
     25 C8          38.6190    10.7360    58.6930 ca         1 578      -0.070000
     26 C4          39.0440    13.0520    58.2210 ca         1 578      -0.066000
     27 C5          39.8940    12.6800    57.1890 ca         1 578      -0.144000
     28 C6          40.1120    11.3320    56.9100 ca         1 578      -0.147000
     29 C7          39.4750    10.3460    57.6610 ca         1 578      -0.119300
     30 C9          39.7260     8.8860    57.3860 c3         1 578       0.206100
     31 N10         40.6510     8.3190    58.3850 n8         1 578      -0.982200
     32 H27         36.8340    14.2680    68.0730 ha         1 578       0.136000
     33 H28         38.9700    13.6650    69.1590 ha         1 578       0.101500
     34 H29         40.6420    12.3040    67.9350 ha         1 578       0.087000
     35 H30         40.1570    11.5490    65.6230 ha         1 578       0.101500
     36 H31         38.0190    12.1400    64.5500 ha         1 578       0.136000
     37 H231        35.3230    12.6920    65.5180 h1         1 578       0.038700
     38 H232        35.4240    14.3250    66.1860 h1         1 578       0.038700
     39 HN19        36.5860    14.5230    62.0400 hn         1 578       0.391500
     40 H15         33.6750    14.5470    61.4670 h1         1 578       0.064700
     41 H16         33.9590    16.2610    59.7730 hc         1 578       0.051700
     42 H181        34.7740    17.1680    62.5770 hc         1 578       0.021867
     43 H182        34.0470    18.1960    61.3390 hc         1 578       0.021867
     44 H183        33.1220    16.8560    62.0320 hc         1 578       0.021867
     45 H171        35.9320    17.7690    59.7600 hc         1 578       0.021867
     46 H172        36.7580    16.7190    60.9110 hc         1 578       0.021867
     47 H173        36.3880    16.1250    59.2910 hc         1 578       0.021867
     48 H1          36.8820    11.6250    60.4210 h1         1 578       0.065700
     49 H8          38.1150     9.9750    59.2790 ha         1 578       0.121000
     50 H4          38.8710    14.0990    58.4340 ha         1 578       0.136000
     51 H5          40.3900    13.4400    56.5970 ha         1 578       0.080000
     52 H6          40.7730    11.0440    56.1010 ha         1 578       0.068000
     53 H91         38.7870     8.3330    57.4580 h1         1 578       0.016200
     54 H92         40.0930     8.7750    56.3580 h1         1 578       0.016200
     55 H101        40.8100     7.3380    58.1780 hn         1 578       0.374500
     56 H102        41.5550     8.7760    58.3000 hn         1 578       0.374500
@<TRIPOS>BOND
     1     1     2 ar  
     2     1     6 ar  
     3     1    32 1   
     4     2     3 ar  
     5     2    33 1   
     6     3     4 ar  
     7     3    34 1   
     8     4     5 ar  
     9     4    35 1   
    10     5     6 ar  
    11     5    36 1   
    12     6     7 1   
    13     7     8 1   
    14     7    37 1   
    15     7    38 1   
    16     8     9 1   
    17     9    10 2   
    18     9    11 1   
    19    11    12 1   
    20    11    39 1   
    21    12    13 1   
    22    12    16 1   
    23    12    40 1   
    24    13    14 1   
    25    13    15 1   
    26    13    41 1   
    27    14    42 1   
    28    14    43 1   
    29    14    44 1   
    30    15    45 1   
    31    15    46 1   
    32    15    47 1   
    33    16    17 1   
    34    16    18 1   
    35    16    19 1   
    36    19    20 1   
    37    20    21 1   
    38    20    24 1   
    39    20    48 1   
    40    21    22 1   
    41    21    23 1   
    42    24    25 ar  
    43    24    26 ar  
    44    25    29 ar  
    45    25    49 1   
    46    26    27 ar  
    47    26    50 1   
    48    27    28 ar  
    49    27    51 1   
    50    28    29 ar  
    51    28    52 1   
    52    29    30 1   
    53    30    31 1   
    54    30    53 1   
    55    30    54 1   
    56    31    55 1   
    57    31    56 1   
@<TRIPOS>SUBSTRUCTURE
     1 578         1 TEMP              0 ****  ****    0 ROOT
