@<TRIPOS>MOLECULE
579
   54    56     1     0     0
SMALL
No Charge or Current Charge


@<TRIPOS>ATOM
      1 C1          -3.7960     2.9440    -0.1130 c3         1 579      -0.084100
      2 C2          -4.2320     1.8270    -1.0840 c3         1 579      -0.020100
      3 O2           5.7950     1.6020     2.4630 os         1 579      -0.442000
      4 C3          -4.4120     0.4820    -0.4030 cc         1 579       0.002700
      5 C4          -5.6430    -0.0610     0.1230 cc         1 579      -0.267600
      6 C5          -5.3710    -1.3120     0.6410 cd         1 579      -0.054300
      7 C7          -3.4090    -0.4480    -0.1720 cd         1 579      -0.281600
      8 C8          -1.9510    -0.3080    -0.5110 c          1 579       0.648700
      9 C11          0.1730    -1.7470    -0.2650 ca         1 579      -0.055000
     10 C12          1.1590    -0.8180    -0.6740 ca         1 579      -0.009000
     11 C13          2.5170    -1.2020    -0.7470 ca         1 579      -0.292500
     12 C14          2.8910    -2.5130    -0.4030 ca         1 579       0.246000
     13 C15          1.9170    -3.4340     0.0080 ca         1 579      -0.146000
     14 C16          0.5660    -3.0540     0.0770 ca         1 579      -0.095000
     15 C22          5.7910     1.1870     0.0330 c6         1 579       0.173800
     16 C23          6.6390     1.2730     1.3340 c6         1 579       0.151600
     17 C24          3.8440     0.5270     1.3990 c6         1 579       0.173800
     18 C25          4.7390     0.6340     2.6680 c6         1 579       0.151600
     19 C26         -6.2590    -2.3340     1.3120 c3         1 579      -0.037800
     20 C27         -7.0360     0.5290     0.1680 c          1 579       0.613700
     21 C29         -7.3610     1.9210    -0.3760 c3         1 579      -0.191100
     22 N6          -4.0150    -1.5450     0.4570 na         1 579      -0.097000
     23 N10         -1.2140    -1.4360    -0.1630 ns         1 579      -0.158000
     24 N21          4.6540     0.2300     0.1760 n3         1 579      -0.764500
     25 O28         -7.9730    -0.0930     0.6530 o          1 579      -0.558100
     26 O9          -1.4550     0.6800    -1.0320 o          1 579      -0.555100
     27 O19          4.6730    -0.6790    -2.1880 o          1 579      -0.533000
     28 O20          3.1230     1.2700    -1.5780 o          1 579      -0.533000
     29 S18          3.7610    -0.0100    -1.2540 sy         1 579       1.175600
     30 F1           4.1820    -2.9110    -0.4390 f          1 579      -0.155000
     31 H1          -4.5080     3.0520     0.7140 hc         1 579       0.040033
     32 H2          -2.8140     2.7200     0.3180 hc         1 579       0.040033
     33 H3          -3.7280     3.9040    -0.6380 hc         1 579       0.040033
     34 H4          -5.1200     2.1330    -1.6350 hc         1 579       0.055200
     35 H5          -3.4850     1.7470    -1.8800 hc         1 579       0.055200
     36 H6           0.8860     0.2020    -0.9300 ha         1 579       0.174000
     37 H7           2.2130    -4.4440     0.2770 ha         1 579       0.137000
     38 H8          -0.1760    -3.7820     0.3980 ha         1 579       0.116000
     39 H10          6.4530     0.8820    -0.7910 h1         1 579       0.064450
     40 H11          7.4140     2.0450     1.2260 h1         1 579       0.054950
     41 H12          7.1360     0.3110     1.5210 h1         1 579       0.054950
     42 H13          3.0970    -0.2580     1.5820 h1         1 579       0.064450
     43 H14          3.2950     1.4720     1.2770 h1         1 579       0.064450
     44 H15          5.1840    -0.3460     2.8940 h1         1 579       0.054950
     45 H16          4.1310     0.9410     3.5300 h1         1 579       0.054950
     46 H17         -6.7140    -1.9260     2.2220 hc         1 579       0.061367
     47 H18         -7.0660    -2.6570     0.6430 hc         1 579       0.061367
     48 H19         -5.6980    -3.2300     1.6010 hc         1 579       0.061367
     49 H20         -7.2440     1.9080    -1.4640 hc         1 579       0.061033
     50 H21         -8.3810     2.2310    -0.1210 hc         1 579       0.061033
     51 H22         -6.6310     2.6510    -0.0220 hc         1 579       0.061033
     52 H23         -3.5460    -2.3940     0.7550 hn         1 579       0.346000
     53 H24         -1.7630    -2.1810     0.2390 hn         1 579       0.145000
     54 H9           5.4200     2.1940    -0.2100 h1         1 579       0.064450
@<TRIPOS>BOND
     1     1     2 1   
     2     1    31 1   
     3     1    32 1   
     4     1    33 1   
     5     2     4 1   
     6     2    34 1   
     7     2    35 1   
     8     3    16 1   
     9     3    18 1   
    10     4     5 1   
    11     4     7 2   
    12     5     6 2   
    13     5    20 1   
    14     6    19 1   
    15     6    22 1   
    16     7     8 1   
    17     7    22 1   
    18     8    23 1   
    19     8    26 2   
    20     9    10 ar  
    21     9    14 ar  
    22     9    23 1   
    23    10    11 ar  
    24    10    36 1   
    25    11    12 ar  
    26    11    29 1   
    27    12    13 ar  
    28    12    30 1   
    29    13    14 ar  
    30    13    37 1   
    31    14    38 1   
    32    15    16 1   
    33    15    24 1   
    34    15    39 1   
    35    15    54 1   
    36    16    40 1   
    37    16    41 1   
    38    17    18 1   
    39    17    24 1   
    40    17    42 1   
    41    17    43 1   
    42    18    44 1   
    43    18    45 1   
    44    19    46 1   
    45    19    47 1   
    46    19    48 1   
    47    20    21 1   
    48    20    25 2   
    49    21    49 1   
    50    21    50 1   
    51    21    51 1   
    52    22    52 1   
    53    23    53 1   
    54    24    29 1   
    55    27    29 2   
    56    28    29 2   
@<TRIPOS>SUBSTRUCTURE
     1 579         1 TEMP              0 ****  ****    0 ROOT
