@<TRIPOS>MOLECULE
579
   54    56     1     0     0
SMALL
abcg2


@<TRIPOS>ATOM
      1 C1          -4.2680     2.8610    -0.9340 c3         1 579      -0.084100
      2 C2          -4.4480     1.4620    -1.5200 c3         1 579      -0.020100
      3 O2           6.2520     0.4450     2.6350 os         1 579      -0.442000
      4 C3          -4.4920     0.3970    -0.4670 cc         1 579       0.002700
      5 C4          -5.6260    -0.1350     0.2270 cc         1 579      -0.267600
      6 C5          -5.1530    -1.1070     1.1170 cd         1 579      -0.054300
      7 C7          -3.3890    -0.2740     0.0210 cd         1 579      -0.281600
      8 C8          -1.9830    -0.1430    -0.3630 c          1 579       0.648700
      9 C11          0.1550    -1.3920    -0.3380 ca         1 579      -0.055000
     10 C12          1.0450    -0.3250    -0.4430 ca         1 579      -0.009000
     11 C13          2.3940    -0.5750    -0.6490 ca         1 579      -0.292500
     12 C14          2.8650    -1.8750    -0.7490 ca         1 579       0.246000
     13 C15          1.9970    -2.9390    -0.6360 ca         1 579      -0.146000
     14 C16          0.6510    -2.6930    -0.4370 ca         1 579      -0.095000
     15 C22          5.9710     0.7660     0.2470 c6         1 579       0.173800
     16 C23          6.7010     0.0400     1.3620 c6         1 579       0.151600
     17 C24          4.0480     0.9190     1.7530 c6         1 579       0.173800
     18 C25          4.8770     0.1860     2.7920 c6         1 579       0.151600
     19 C26         -5.8440    -1.9680     2.1130 c3         1 579      -0.037800
     20 C27         -7.0520     0.1810     0.1210 c          1 579       0.613700
     21 C29         -7.5220     1.2690    -0.8080 c3         1 579      -0.191100
     22 N6          -3.8280    -1.1760     0.9650 na         1 579      -0.097000
     23 N10         -1.2120    -1.2430    -0.1030 ns         1 579      -0.158000
     24 N21          4.5380     0.5390     0.4300 n3         1 579      -0.764500
     25 O28         -7.8710    -0.4370     0.7820 o          1 579      -0.558100
     26 O9          -1.5370     0.8700    -0.8780 o          1 579      -0.555100
     27 O19          4.2690     0.6170    -2.0630 o          1 579      -0.533000
     28 O20          2.7380     2.0070    -0.6570 o          1 579      -0.533000
     29 S18          3.5140     0.7880    -0.8340 sy         1 579       1.175600
     30 F1           4.1640    -2.1020    -0.9480 f          1 579      -0.155000
     31 H1          -5.0590     3.1130    -0.2270 hc         1 579       0.040033
     32 H2          -3.3180     2.9330    -0.4050 hc         1 579       0.040033
     33 H3          -4.2750     3.6130    -1.7230 hc         1 579       0.040033
     34 H4          -5.3510     1.4280    -2.1280 hc         1 579       0.055200
     35 H5          -3.6240     1.2620    -2.2040 hc         1 579       0.055200
     36 H6           0.7060     0.6940    -0.3590 ha         1 579       0.174000
     37 H7           2.3650    -3.9540    -0.7130 ha         1 579       0.137000
     38 H8          -0.0270    -3.5340    -0.3570 ha         1 579       0.116000
     39 H10          6.2960     0.3590    -0.7070 h1         1 579       0.064450
     40 H11          7.7670     0.2630     1.3020 h1         1 579       0.054950
     41 H12          6.5710    -1.0430     1.2330 h1         1 579       0.054950
     42 H13          3.0050     0.6220     1.8720 h1         1 579       0.064450
     43 H14          4.1120     2.0020     1.9010 h1         1 579       0.064450
     44 H15          4.6730    -0.8910     2.7190 h1         1 579       0.054950
     45 H16          4.5880     0.5210     3.7880 h1         1 579       0.054950
     46 H17         -6.4140    -1.3730     2.8250 hc         1 579       0.061367
     47 H18         -6.5440    -2.6470     1.6290 hc         1 579       0.061367
     48 H19         -5.1210    -2.5640     2.6680 hc         1 579       0.061367
     49 H20         -7.3890     0.9640    -1.8480 hc         1 579       0.061033
     50 H21         -8.5790     1.4630    -0.6430 hc         1 579       0.061033
     51 H22         -6.9680     2.1960    -0.6670 hc         1 579       0.061033
     52 H23         -3.2370    -1.7420     1.5550 hn         1 579       0.346000
     53 H24         -1.6920    -2.1070     0.0990 hn         1 579       0.145000
     54 H9           6.2100     1.8350     0.2680 h1         1 579       0.064450
@<TRIPOS>BOND
     1     1     2 1   
     2     1    31 1   
     3     1    32 1   
     4     1    33 1   
     5     2     4 1   
     6     2    34 1   
     7     2    35 1   
     8     3    16 1   
     9     3    18 1   
    10     4     5 1   
    11     4     7 2   
    12     5     6 2   
    13     5    20 1   
    14     6    19 1   
    15     6    22 1   
    16     7     8 1   
    17     7    22 1   
    18     8    23 1   
    19     8    26 2   
    20     9    10 ar  
    21     9    14 ar  
    22     9    23 1   
    23    10    11 ar  
    24    10    36 1   
    25    11    12 ar  
    26    11    29 1   
    27    12    13 ar  
    28    12    30 1   
    29    13    14 ar  
    30    13    37 1   
    31    14    38 1   
    32    15    16 1   
    33    15    24 1   
    34    15    39 1   
    35    15    54 1   
    36    16    40 1   
    37    16    41 1   
    38    17    18 1   
    39    17    24 1   
    40    17    42 1   
    41    17    43 1   
    42    18    44 1   
    43    18    45 1   
    44    19    46 1   
    45    19    47 1   
    46    19    48 1   
    47    20    21 1   
    48    20    25 2   
    49    21    49 1   
    50    21    50 1   
    51    21    51 1   
    52    22    52 1   
    53    23    53 1   
    54    24    29 1   
    55    27    29 2   
    56    28    29 2   
@<TRIPOS>SUBSTRUCTURE
     1 579         1 TEMP              0 ****  ****    0 ROOT
