@<TRIPOS>MOLECULE
57C
   62    64     1     0     0
SMALL
abcg2


@<TRIPOS>ATOM
      1 C15          2.2020    -2.5330     1.0700 ca         1 57C      -0.106000
      2 C14          3.2130    -2.0580     0.2530 ca         1 57C      -0.043000
      3 C12          1.6470    -0.4650    -0.6740 ca         1 57C      -0.084000
      4 C4          -4.8870     1.2480    -0.0060 cc         1 57C      -0.266600
      5 C3          -4.2310     0.1030     0.5470 cc         1 57C       0.000700
      6 C11          0.6330    -0.9480     0.1570 ca         1 57C      -0.037000
      7 C16          0.9250    -1.9920     1.0400 ca         1 57C      -0.084000
      8 C13          2.9150    -1.0120    -0.6070 ca         1 57C      -0.255500
      9 C7          -2.8760     0.3240     0.4060 cd         1 57C      -0.279600
     10 C5          -3.8920     2.1350    -0.4330 cd         1 57C      -0.055300
     11 C8          -1.7550    -0.5560     0.7490 c          1 57C       0.655700
     12 C26         -3.9570     3.4880    -1.0430 c3         1 57C      -0.038800
     13 C29         -7.3440     0.4720     0.0500 c3         1 57C      -0.191100
     14 C1          -4.9280    -2.2910     0.1380 c3         1 57C      -0.069400
     15 C23          3.4510     2.3850     0.7230 c3         1 57C      -0.101400
     16 C25          5.8000     0.0980     1.4820 c3         1 57C      -0.101400
     17 C2          -4.8420    -1.1320     1.1340 c3         1 57C      -0.027100
     18 C22          4.1990     2.1940    -0.5900 c3         1 57C       0.224300
     19 C24          6.0580     0.6820     0.0980 c3         1 57C       0.224300
     20 N6          -2.7120     1.5520    -0.1970 na         1 57C      -0.096000
     21 N10         -0.6150    -0.3390     0.0250 ns         1 57C      -0.158000
     22 N21          4.8840     0.9110    -0.7410 n3         1 57C      -0.778500
     23 O28         -6.6690     2.6590    -0.5250 o          1 57C      -0.555100
     24 O9          -1.8430    -1.4200     1.6060 o          1 57C      -0.570100
     25 O19          5.2260    -1.3230    -1.7800 o          1 57C      -0.542000
     26 O20          3.5620     0.2830    -2.7680 o          1 57C      -0.542000
     27 S18          4.2070    -0.3010    -1.6010 sy         1 57C       1.186600
     28 C6          -5.5950    -3.5150     0.7470 c3         1 57C      -0.090100
     29 C9           4.5770     0.6510     2.2180 c3         1 57C      -0.070400
     30 C10          4.2670     2.1310     1.9880 c3         1 57C      -0.070400
     31 H1           2.4040    -3.3510     1.7490 ha         1 57C       0.121000
     32 H2           4.2010    -2.4950     0.2890 ha         1 57C       0.139000
     33 H3           1.4320     0.3380    -1.3690 ha         1 57C       0.126000
     34 H4           0.1680    -2.3950     1.6900 ha         1 57C       0.152000
     35 H5          -4.5570     3.4820    -1.9520 hc         1 57C       0.061367
     36 H6          -4.4110     4.2080    -0.3640 hc         1 57C       0.061367
     37 H7          -2.9580     3.8410    -1.2960 hc         1 57C       0.061367
     38 H8          -7.4680     0.2790     1.1170 hc         1 57C       0.060700
     39 H9          -8.3040     0.7980    -0.3450 hc         1 57C       0.060700
     40 H10         -7.0690    -0.4700    -0.4230 hc         1 57C       0.060700
     41 H11         -5.4750    -1.9750    -0.7540 hc         1 57C       0.041200
     42 H12         -3.9220    -2.5480    -0.2010 hc         1 57C       0.041200
     43 H13          3.0790     3.4130     0.7240 hc         1 57C       0.046200
     44 H14          2.5670     1.7410     0.7450 hc         1 57C       0.046200
     45 H15          5.7170    -0.9900     1.4220 hc         1 57C       0.046200
     46 H16          6.7020     0.2920     2.0690 hc         1 57C       0.046200
     47 H17         -4.2530    -1.4530     1.9920 hc         1 57C       0.061700
     48 H18         -5.8340    -0.9100     1.5240 hc         1 57C       0.061700
     49 H19          3.5190     2.3400    -1.4280 h1         1 57C       0.061950
     50 H20          4.9690     2.9640    -0.6860 h1         1 57C       0.061950
     51 H21          6.5240     1.6640     0.1950 h1         1 57C       0.061950
     52 H22          6.7770     0.0640    -0.4390 h1         1 57C       0.061950
     53 H23         -1.8330     2.0270    -0.3360 hn         1 57C       0.346000
     54 H24         -0.6820     0.2860    -0.7630 hn         1 57C       0.147000
     55 H25         -5.0530    -3.8560     1.6310 hc         1 57C       0.034033
     56 H26         -6.6200    -3.2980     1.0520 hc         1 57C       0.034033
     57 H27         -5.6290    -4.3440     0.0390 hc         1 57C       0.034033
     58 H28          3.6910     0.0740     1.9380 hc         1 57C       0.042700
     59 H29          4.7200     0.4670     3.2850 hc         1 57C       0.042700
     60 H30          5.1840     2.7290     1.9800 hc         1 57C       0.042700
     61 H31          3.6840     2.4970     2.8370 hc         1 57C       0.042700
     62 C27         -6.3110     1.5460    -0.1780 c          1 57C       0.613700
@<TRIPOS>BOND
     1     1     2 ar  
     2     1     7 ar  
     3     1    31 1   
     4     2     8 ar  
     5     2    32 1   
     6     3     6 ar  
     7     3     8 ar  
     8     3    33 1   
     9     4     5 1   
    10     4    10 2   
    11     4    62 1   
    12     5     9 2   
    13     5    17 1   
    14     6     7 ar  
    15     6    21 1   
    16     7    34 1   
    17     8    27 1   
    18     9    11 1   
    19     9    20 1   
    20    10    12 1   
    21    10    20 1   
    22    11    21 1   
    23    11    24 2   
    24    12    35 1   
    25    12    36 1   
    26    12    37 1   
    27    13    38 1   
    28    13    39 1   
    29    13    40 1   
    30    13    62 1   
    31    14    17 1   
    32    14    28 1   
    33    14    41 1   
    34    14    42 1   
    35    15    18 1   
    36    15    30 1   
    37    15    43 1   
    38    15    44 1   
    39    16    19 1   
    40    16    29 1   
    41    16    45 1   
    42    16    46 1   
    43    17    47 1   
    44    17    48 1   
    45    18    22 1   
    46    18    49 1   
    47    18    50 1   
    48    19    22 1   
    49    19    51 1   
    50    19    52 1   
    51    20    53 1   
    52    21    54 1   
    53    22    27 1   
    54    23    62 2   
    55    25    27 2   
    56    26    27 2   
    57    28    55 1   
    58    28    56 1   
    59    28    57 1   
    60    29    30 1   
    61    29    58 1   
    62    29    59 1   
    63    30    60 1   
    64    30    61 1   
@<TRIPOS>SUBSTRUCTURE
     1 57C         1 TEMP              0 ****  ****    0 ROOT
