@<TRIPOS>MOLECULE
57C
   62    64     1     0     0
SMALL
No Charge or Current Charge


@<TRIPOS>ATOM
      1 C15          1.6550    -2.7390     1.4670 ca         1 57C      -0.106000
      2 C14          2.8080    -2.1580     0.9180 ca         1 57C      -0.043000
      3 C12          1.4160    -0.5120    -0.2190 ca         1 57C      -0.084000
      4 C4          -5.2370     1.1430    -0.9600 cc         1 57C      -0.266600
      5 C3          -4.6690     0.1810    -0.0450 cc         1 57C       0.000700
      6 C11          0.2550    -1.0870     0.3330 ca         1 57C      -0.037000
      7 C16          0.3840    -2.2120     1.1780 ca         1 57C      -0.084000
      8 C13          2.6930    -1.0400     0.0670 ca         1 57C      -0.255500
      9 C7          -3.3000     0.1490    -0.2610 cd         1 57C      -0.279600
     10 C5          -4.2050     1.6900    -1.6970 cd         1 57C      -0.055300
     11 C8          -2.2940    -0.7290     0.4310 c          1 57C       0.655700
     12 C26         -4.1980     2.7330    -2.7900 c3         1 57C      -0.038800
     13 C29         -7.8400     0.9580    -0.3920 c3         1 57C      -0.191100
     14 C1          -5.8300    -2.0460     0.4290 c3         1 57C      -0.069400
     15 C23          5.1820     0.5690     2.6150 c3         1 57C      -0.101400
     16 C25          6.8160     1.7630    -0.0670 c3         1 57C      -0.101400
     17 C2          -5.4260    -0.6550     0.9720 c3         1 57C      -0.027100
     18 C22          4.0480     1.1260     1.7300 c3         1 57C       0.224300
     19 C24          5.3190     2.1560    -0.1710 c3         1 57C       0.224300
     20 N6          -3.0310     1.0880    -1.2670 na         1 57C      -0.096000
     21 N10         -0.9950    -0.4950    -0.0070 ns         1 57C      -0.158000
     22 N21          4.3140     1.1700     0.2740 n3         1 57C      -0.778500
     23 O28         -6.9690     2.4100    -2.0100 o          1 57C      -0.555100
     24 O9          -2.5750    -1.5600     1.2850 o          1 57C      -0.570100
     25 O19          5.3470    -1.1040    -0.3570 o          1 57C      -0.542000
     26 O20          3.8240     0.1600    -1.9940 o          1 57C      -0.542000
     27 S18          4.1720    -0.2700    -0.6340 sy         1 57C       1.186600
     28 C6          -6.6860    -2.8570     1.4200 c3         1 57C      -0.090100
     29 C9           7.3070     1.0390     1.2150 c3         1 57C      -0.070400
     30 C10          6.5300     1.3240     2.5170 c3         1 57C      -0.070400
     31 H1           1.7460    -3.6040     2.1210 ha         1 57C       0.121000
     32 H2           3.7850    -2.5770     1.1570 ha         1 57C       0.139000
     33 H3           1.3280     0.3570    -0.8690 ha         1 57C       0.126000
     34 H4          -0.4820    -2.6970     1.6170 ha         1 57C       0.152000
     35 H5          -4.7970     2.4100    -3.6500 hc         1 57C       0.061367
     36 H6          -4.6040     3.6860    -2.4300 hc         1 57C       0.061367
     37 H7          -3.1830     2.9300    -3.1560 hc         1 57C       0.061367
     38 H8          -7.7550     1.2690     0.6540 hc         1 57C       0.060700
     39 H9          -8.8100     1.2760    -0.7890 hc         1 57C       0.060700
     40 H10         -7.7660    -0.1310    -0.3690 hc         1 57C       0.060700
     41 H11         -6.3800    -1.9330    -0.5120 hc         1 57C       0.041200
     42 H12         -4.9250    -2.6160     0.1900 hc         1 57C       0.041200
     43 H13          4.8410     0.6130     3.6560 hc         1 57C       0.046200
     44 H14          5.3350    -0.4940     2.3920 hc         1 57C       0.046200
     45 H15          7.0760     1.1410    -0.9320 hc         1 57C       0.046200
     46 H16          7.3990     2.6850    -0.1840 hc         1 57C       0.046200
     47 H17         -4.8170    -0.7920     1.8710 hc         1 57C       0.061700
     48 H18         -6.2960    -0.1300     1.3640 hc         1 57C       0.061700
     49 H19          3.1330     0.5610     1.9460 h1         1 57C       0.061950
     50 H20          3.8410     2.1470     2.0780 h1         1 57C       0.061950
     51 H21          5.1840     3.0800     0.4090 h1         1 57C       0.061950
     52 H22          5.1220     2.4360    -1.2150 h1         1 57C       0.061950
     53 H23         -2.1170     1.3030    -1.6510 hn         1 57C       0.346000
     54 H24         -0.9170     0.2360    -0.6990 hn         1 57C       0.147000
     55 H25         -6.1430    -3.0210     2.3590 hc         1 57C       0.034033
     56 H26         -7.6220    -2.3310     1.6470 hc         1 57C       0.034033
     57 H27         -6.9380    -3.8360     0.9940 hc         1 57C       0.034033
     58 H28          7.3150    -0.0430     1.0400 hc         1 57C       0.042700
     59 H29          8.3580     1.3120     1.3720 hc         1 57C       0.042700
     60 H30          6.3740     2.4030     2.6390 hc         1 57C       0.042700
     61 H31          7.1550     1.0050     3.3600 hc         1 57C       0.042700
     62 C27         -6.6750     1.5600    -1.1780 c          1 57C       0.613700
@<TRIPOS>BOND
     1     1     2 ar  
     2     1     7 ar  
     3     1    31 1   
     4     2     8 ar  
     5     2    32 1   
     6     3     6 ar  
     7     3     8 ar  
     8     3    33 1   
     9     4     5 1   
    10     4    10 2   
    11     4    62 1   
    12     5     9 2   
    13     5    17 1   
    14     6     7 ar  
    15     6    21 1   
    16     7    34 1   
    17     8    27 1   
    18     9    11 1   
    19     9    20 1   
    20    10    12 1   
    21    10    20 1   
    22    11    21 1   
    23    11    24 2   
    24    12    35 1   
    25    12    36 1   
    26    12    37 1   
    27    13    38 1   
    28    13    39 1   
    29    13    40 1   
    30    13    62 1   
    31    14    17 1   
    32    14    28 1   
    33    14    41 1   
    34    14    42 1   
    35    15    18 1   
    36    15    30 1   
    37    15    43 1   
    38    15    44 1   
    39    16    19 1   
    40    16    29 1   
    41    16    45 1   
    42    16    46 1   
    43    17    47 1   
    44    17    48 1   
    45    18    22 1   
    46    18    49 1   
    47    18    50 1   
    48    19    22 1   
    49    19    51 1   
    50    19    52 1   
    51    20    53 1   
    52    21    54 1   
    53    22    27 1   
    54    23    62 2   
    55    25    27 2   
    56    26    27 2   
    57    28    55 1   
    58    28    56 1   
    59    28    57 1   
    60    29    30 1   
    61    29    58 1   
    62    29    59 1   
    63    30    60 1   
    64    30    61 1   
@<TRIPOS>SUBSTRUCTURE
     1 57C         1 TEMP              0 ****  ****    0 ROOT
