@<TRIPOS>MOLECULE
57D
   29    31     1     0     0
SMALL
No Charge or Current Charge


@<TRIPOS>ATOM
      1 C2          -1.1060    -0.1530    -0.1580 cc         1 57D       0.217900
      2 C3          -0.6450    -1.4340    -0.3680 cd         1 57D      -0.380200
      3 C4           0.7580    -1.7570    -0.4400 c          1 57D       0.614900
      4 C5           1.6690    -0.6250    -0.2200 ca         1 57D      -0.380600
      5 C6           3.0620    -0.7910    -0.1390 ca         1 57D       0.282100
      6 C7           3.8940     0.3090     0.0750 ca         1 57D      -0.246000
      7 C8           3.3400     1.5820     0.2030 ca         1 57D       0.243100
      8 C9           1.9560     1.7560     0.1180 ca         1 57D      -0.301000
      9 C10          1.1100     0.6560    -0.0850 ca         1 57D       0.244100
     10 O1          -0.2440     0.9310    -0.1900 os         1 57D      -0.217200
     11 O4           1.1640    -2.8940    -0.6410 o          1 57D      -0.598100
     12 O5           3.6190    -2.0210    -0.2680 oh         1 57D      -0.537100
     13 O7           4.1520     2.6530     0.4050 oh         1 57D      -0.518100
     14 C11         -3.0800     1.3070    -0.5960 ca         1 57D      -0.071000
     15 C12         -4.4580     1.5730    -0.5110 ca         1 57D      -0.116500
     16 C13         -5.3180     0.6500     0.1070 ca         1 57D      -0.085000
     17 C14         -4.7970    -0.5380     0.6420 ca         1 57D      -0.116500
     18 C15         -3.4190    -0.8070     0.5570 ca         1 57D      -0.071000
     19 C1          -2.5460     0.1110    -0.0690 ca         1 57D      -0.077800
     20 H3          -1.3060    -2.2830    -0.4730 ha         1 57D       0.218000
     21 H7           4.9690     0.1740     0.1380 ha         1 57D       0.152000
     22 H9           1.5200     2.7470     0.2090 ha         1 57D       0.136000
     23 HO5          2.8580    -2.6340    -0.4380 ho         1 57D       0.525000
     24 HO7          3.5880     3.4520     0.4680 ho         1 57D       0.474000
     25 H1          -4.8590     2.4960    -0.9240 ha         1 57D       0.120000
     26 H4          -6.3840     0.8580     0.1730 ha         1 57D       0.118000
     27 H5          -5.4600    -1.2520     1.1270 ha         1 57D       0.120000
     28 H6          -3.0340    -1.7260     0.9930 ha         1 57D       0.125000
     29 H2          -2.4290     2.0310    -1.0800 ha         1 57D       0.125000
@<TRIPOS>BOND
     1     1     2 2   
     2     1    10 1   
     3     1    19 1   
     4     2     3 1   
     5     2    20 1   
     6     3     4 1   
     7     3    11 2   
     8     4     5 ar  
     9     4     9 ar  
    10     5     6 ar  
    11     5    12 1   
    12     6     7 ar  
    13     6    21 1   
    14     7     8 ar  
    15     7    13 1   
    16     8     9 ar  
    17     8    22 1   
    18     9    10 1   
    19    12    23 1   
    20    13    24 1   
    21    14    15 ar  
    22    14    19 ar  
    23    14    29 1   
    24    15    16 ar  
    25    15    25 1   
    26    16    17 ar  
    27    16    26 1   
    28    17    18 ar  
    29    17    27 1   
    30    18    19 ar  
    31    18    28 1   
@<TRIPOS>SUBSTRUCTURE
     1 57D         1 TEMP              0 ****  ****    0 ROOT
