@<TRIPOS>MOLECULE
57D
   29    31     1     0     0
SMALL
bcc


@<TRIPOS>ATOM
      1 C2          -1.0990    -0.3170    -0.0550 cc         1 57D       0.217900
      2 C3          -0.6250    -1.5750    -0.1830 cd         1 57D      -0.330200
      3 C4           0.7900    -1.8370    -0.2080 c          1 57D       0.614900
      4 C5           1.6330    -0.6660    -0.1200 ca         1 57D      -0.380600
      5 C6           3.0460    -0.7560    -0.1550 ca         1 57D       0.282100
      6 C7           3.8170     0.3870    -0.0760 ca         1 57D      -0.264000
      7 C8           3.1980     1.6350     0.0370 ca         1 57D       0.243100
      8 C9           1.8110     1.7580     0.0750 ca         1 57D      -0.319000
      9 C10          1.0600     0.6010    -0.0060 ca         1 57D       0.244100
     10 O1          -0.2820     0.7410     0.0380 os         1 57D      -0.217200
     11 O4           1.2610    -2.9810    -0.3100 o          1 57D      -0.598100
     12 O5           3.6390    -1.9400    -0.2640 oh         1 57D      -0.498100
     13 O7           4.0020     2.6990     0.1090 oh         1 57D      -0.479100
     14 C11         -2.9180     1.3600    -0.3330 ca         1 57D      -0.089000
     15 C12         -4.2630     1.6970    -0.3170 ca         1 57D      -0.134500
     16 C13         -5.2200     0.7490     0.0180 ca         1 57D      -0.103000
     17 C14         -4.8260    -0.5430     0.3410 ca         1 57D      -0.134500
     18 C15         -3.4850    -0.8860     0.3250 ca         1 57D      -0.089000
     19 C1          -2.5170     0.0600    -0.0190 ca         1 57D      -0.077800
     20 H3          -1.3090    -2.4050    -0.2840 ha         1 57D       0.168000
     21 H7           4.8970     0.3190    -0.1020 ha         1 57D       0.170000
     22 H9           1.3280     2.7230     0.1660 ha         1 57D       0.154000
     23 HO5          2.9290    -2.6260    -0.3070 ho         1 57D       0.486000
     24 HO7          3.4920     3.5150     0.1740 ho         1 57D       0.435000
     25 H1          -4.5620     2.7050    -0.5720 ha         1 57D       0.138000
     26 H4          -6.2690     1.0160     0.0310 ha         1 57D       0.136000
     27 H5          -5.5640    -1.2850     0.6150 ha         1 57D       0.138000
     28 H6          -3.1960    -1.8910     0.6030 ha         1 57D       0.143000
     29 H2          -2.1920     2.1130    -0.6050 ha         1 57D       0.143000
@<TRIPOS>BOND
     1     1     2 2   
     2     1    10 1   
     3     1    19 1   
     4     2     3 1   
     5     2    20 1   
     6     3     4 1   
     7     3    11 2   
     8     4     5 ar  
     9     4     9 ar  
    10     5     6 ar  
    11     5    12 1   
    12     6     7 ar  
    13     6    21 1   
    14     7     8 ar  
    15     7    13 1   
    16     8     9 ar  
    17     8    22 1   
    18     9    10 1   
    19    12    23 1   
    20    13    24 1   
    21    14    15 ar  
    22    14    19 ar  
    23    14    29 1   
    24    15    16 ar  
    25    15    25 1   
    26    16    17 ar  
    27    16    26 1   
    28    17    18 ar  
    29    17    27 1   
    30    18    19 ar  
    31    18    28 1   
@<TRIPOS>SUBSTRUCTURE
     1 57D         1 TEMP              0 ****  ****    0 ROOT
