@<TRIPOS>MOLECULE
57E
   48    50     1     0     0
SMALL
bcc


@<TRIPOS>ATOM
      1 C1           2.8960    -0.0690     2.5430 c3         1 57E      -0.088100
      2 C2           2.8310    -0.9480     1.2920 c3         1 57E      -0.026100
      3 C3           3.2090    -0.1830     0.0600 cc         1 57E      -0.018300
      4 C4           4.5110     0.2740    -0.3160 cc         1 57E      -0.267600
      5 C5           4.3530     1.1510    -1.3980 cd         1 57E      -0.000600
      6 C7           2.3250     0.4200    -0.8150 cd         1 57E      -0.235900
      7 C11         -1.1690    -0.8060    -0.3230 ca         1 57E      -0.015400
      8 C12         -2.0960     0.1710     0.0040 ca         1 57E      -0.021000
      9 C13         -3.3650    -0.2690     0.3520 ca         1 57E      -0.301500
     10 C14         -3.7150    -1.6230     0.3810 ca         1 57E      -0.060000
     11 C15         -2.7780    -2.5820     0.0560 ca         1 57E      -0.107000
     12 C17         -0.3140    -2.9000    -0.6760 cc         1 57E      -0.181200
     13 C22         -5.9640     0.4770    -1.5280 c3         1 57E       0.180100
     14 C26          5.3370     1.8990    -2.2210 c3         1 57E      -0.039800
     15 C27          5.8310    -0.0650     0.2210 c          1 57E       0.612700
     16 O28          6.8150     0.5720    -0.1180 o          1 57E      -0.550100
     17 C8           0.8700     0.4780    -0.8980 c          1 57E       0.731700
     18 C29          5.9780    -1.2320     1.1610 c3         1 57E      -0.191100
     19 N6           3.0470     1.2290    -1.6580 na         1 57E      -0.119100
     20 N10          0.1740    -0.7060    -0.6690 n          1 57E      -0.252200
     21 O9           0.2780     1.5000    -1.1760 o          1 57E      -0.543100
     22 C6           0.6600    -1.9890    -0.8920 cd         1 57E      -0.045400
     23 C16         -1.4920    -2.1770    -0.3010 ca         1 57E      -0.045800
     24 O19         -5.6730     0.3020     1.4390 o          1 57E      -0.603300
     25 O20         -3.9310     2.1150     1.2820 o          1 57E      -0.603300
     26 N21         -5.2260     1.4440    -0.7260 n7         1 57E      -0.804100
     27 H1           3.8880     0.3570     2.6940 hc         1 57E       0.041033
     28 H2           2.1900     0.7590     2.4700 hc         1 57E       0.041033
     29 H3           2.6440    -0.6510     3.4300 hc         1 57E       0.041033
     30 H4           3.4660    -1.8230     1.4140 hc         1 57E       0.053200
     31 H5           1.8180    -1.3360     1.2040 hc         1 57E       0.053200
     32 H6          -1.8500     1.2220    -0.0080 ha         1 57E       0.173000
     33 H7          -4.7120    -1.9250     0.6700 ha         1 57E       0.157000
     34 H8          -3.0380    -3.6320     0.0850 ha         1 57E       0.142000
     35 H9          -0.2150    -3.9670    -0.7830 ha         1 57E       0.165000
     36 H10         -5.3730    -0.3990    -1.8110 h1         1 57E       0.051033
     37 H11         -6.8530     0.1490    -0.9960 h1         1 57E       0.051033
     38 H12         -6.2810     0.9820    -2.4360 h1         1 57E       0.051033
     39 H13          6.1020     1.2370    -2.6240 hc         1 57E       0.063367
     40 H14          4.8390     2.3930    -3.0540 hc         1 57E       0.063367
     41 H15          5.8470     2.6580    -1.6290 hc         1 57E       0.063367
     42 H16          5.5130    -2.1300     0.7550 hc         1 57E       0.060700
     43 H17          7.0330    -1.4310     1.3390 hc         1 57E       0.060700
     44 H18          5.5050    -1.0250     2.1220 hc         1 57E       0.060700
     45 H19          2.6490     1.7590    -2.4200 hn         1 57E       0.313700
     46 H20          1.6770    -2.1360    -1.2190 h4         1 57E       0.179000
     47 H21         -4.5680     2.0040    -1.2560 hn         1 57E       0.424800
     48 S18         -4.5960     0.9540     0.7120 sy         1 57E       1.287200
@<TRIPOS>BOND
     1     1     2 1   
     2     1    27 1   
     3     1    28 1   
     4     1    29 1   
     5     2     3 1   
     6     2    30 1   
     7     2    31 1   
     8     3     4 1   
     9     3     6 2   
    10     4     5 2   
    11     4    15 1   
    12     5    14 1   
    13     5    19 1   
    14     6    17 1   
    15     6    19 1   
    16     7     8 ar  
    17     7    20 1   
    18     7    23 ar  
    19     8     9 ar  
    20     8    32 1   
    21     9    10 ar  
    22     9    48 1   
    23    10    11 ar  
    24    10    33 1   
    25    11    23 ar  
    26    11    34 1   
    27    12    22 2   
    28    12    23 1   
    29    12    35 1   
    30    13    26 1   
    31    13    36 1   
    32    13    37 1   
    33    13    38 1   
    34    14    39 1   
    35    14    40 1   
    36    14    41 1   
    37    15    16 2   
    38    15    18 1   
    39    17    20 1   
    40    17    21 2   
    41    18    42 1   
    42    18    43 1   
    43    18    44 1   
    44    19    45 1   
    45    20    22 1   
    46    22    46 1   
    47    24    48 2   
    48    25    48 2   
    49    26    47 1   
    50    26    48 1   
@<TRIPOS>SUBSTRUCTURE
     1 57E         1 TEMP              0 ****  ****    0 ROOT
