@<TRIPOS>MOLECULE
57E
   48    50     1     0     0
SMALL
No Charge or Current Charge


@<TRIPOS>ATOM
      1 C1           3.2380     0.1250     2.6190 c3         1 57E      -0.088100
      2 C2           2.9240    -0.7200     1.3650 c3         1 57E      -0.026100
      3 C3           3.2590     0.0150     0.0750 cc         1 57E      -0.018300
      4 C4           4.5860     0.3830    -0.3410 cc         1 57E      -0.267600
      5 C5           4.4800     1.3210    -1.3460 cd         1 57E      -0.051300
      6 C7           2.3700     0.6400    -0.7860 cd         1 57E      -0.286600
      7 C11         -1.1200    -0.9770    -0.2720 ca         1 57E      -0.108000
      8 C12         -2.1880    -0.0860    -0.0680 ca         1 57E      -0.003000
      9 C13         -3.4750    -0.6220     0.1820 ca         1 57E      -0.301500
     10 C14         -3.6670    -2.0300     0.2220 ca         1 57E      -0.042000
     11 C15         -2.5780    -2.9020     0.0200 ca         1 57E      -0.089000
     12 C17         -0.0620    -2.9980    -0.4660 cc         1 57E      -0.231200
     13 C22         -6.6340     1.2430    -1.4420 c3         1 57E       0.180100
     14 C26          5.5370     2.0570    -2.1360 c3         1 57E      -0.039800
     15 C27          5.9170    -0.1030     0.1720 c          1 57E       0.612700
     16 O28          6.9620     0.4670    -0.1200 o          1 57E      -0.550100
     17 C8           0.8740     0.5610    -0.8290 c          1 57E       0.664700
     18 C29          6.0260    -1.3800     1.0080 c3         1 57E      -0.191100
     19 N6           3.1240     1.5110    -1.5770 na         1 57E      -0.068000
     20 N10          0.2650    -0.6850    -0.5180 n          1 57E      -0.092600
     21 O9           0.2140     1.5230    -1.2050 o          1 57E      -0.543100
     22 C6           0.8350    -1.9650    -0.6610 cd         1 57E      -0.095400
     23 C16         -1.3180    -2.3430    -0.2210 ca         1 57E      -0.045800
     24 O19         -5.9900    -0.2500     1.0150 o          1 57E      -0.532500
     25 O20         -4.3740     1.7580     0.9920 o          1 57E      -0.532500
     26 N21         -5.2570     0.8050    -1.1480 n7         1 57E      -0.859300
     27 H1           4.2740     0.4810     2.6230 hc         1 57E       0.041033
     28 H2           2.5850     1.0050     2.6540 hc         1 57E       0.041033
     29 H3           3.0690    -0.4620     3.5290 hc         1 57E       0.041033
     30 H4           3.4100    -1.6970     1.4190 hc         1 57E       0.053200
     31 H5           1.8570    -0.9400     1.4360 hc         1 57E       0.053200
     32 H6          -2.0310     0.9910    -0.0960 ha         1 57E       0.155000
     33 H7          -4.6530    -2.4500     0.4120 ha         1 57E       0.139000
     34 H8          -2.7140    -3.9800     0.0490 ha         1 57E       0.124000
     35 H9           0.1430    -4.0640    -0.5400 ha         1 57E       0.215000
     36 H10         -7.3730     0.4920    -1.1290 h1         1 57E       0.051033
     37 H11         -6.8650     2.1850    -0.9270 h1         1 57E       0.051033
     38 H12         -6.7640     1.4110    -2.5200 h1         1 57E       0.051033
     39 H13          6.2220     1.3560    -2.6270 hc         1 57E       0.063367
     40 H14          5.0930     2.6830    -2.9190 hc         1 57E       0.063367
     41 H15          6.1290     2.7130    -1.4870 hc         1 57E       0.063367
     42 H16          5.3920    -2.1560     0.5680 hc         1 57E       0.060700
     43 H17          7.0640    -1.7200     1.1000 hc         1 57E       0.060700
     44 H18          5.6050    -1.2170     2.0020 hc         1 57E       0.060700
     45 H19          2.7380     2.1570    -2.2600 hn         1 57E       0.364000
     46 H20          1.8840    -2.0280    -0.9380 h4         1 57E       0.229000
     47 H21         -5.0720    -0.0960    -1.5890 hn         1 57E       0.480000
     48 S18         -4.8630     0.4910     0.4420 sy         1 57E       1.145600
@<TRIPOS>BOND
     1     1     2 1   
     2     1    27 1   
     3     1    28 1   
     4     1    29 1   
     5     2     3 1   
     6     2    30 1   
     7     2    31 1   
     8     3     4 1   
     9     3     6 2   
    10     4     5 2   
    11     4    15 1   
    12     5    14 1   
    13     5    19 1   
    14     6    17 1   
    15     6    19 1   
    16     7     8 ar  
    17     7    20 1   
    18     7    23 ar  
    19     8     9 ar  
    20     8    32 1   
    21     9    10 ar  
    22     9    48 1   
    23    10    11 ar  
    24    10    33 1   
    25    11    23 ar  
    26    11    34 1   
    27    12    22 2   
    28    12    23 1   
    29    12    35 1   
    30    13    26 1   
    31    13    36 1   
    32    13    37 1   
    33    13    38 1   
    34    14    39 1   
    35    14    40 1   
    36    14    41 1   
    37    15    16 2   
    38    15    18 1   
    39    17    20 1   
    40    17    21 2   
    41    18    42 1   
    42    18    43 1   
    43    18    44 1   
    44    19    45 1   
    45    20    22 1   
    46    22    46 1   
    47    24    48 2   
    48    25    48 2   
    49    26    47 1   
    50    26    48 1   
@<TRIPOS>SUBSTRUCTURE
     1 57E         1 TEMP              0 ****  ****    0 ROOT
