@<TRIPOS>MOLECULE
57F
   59    60     1     0     0
SMALL
abcg2


@<TRIPOS>ATOM
      1 C1          15.5900   -10.1200    -4.9440 c3         1 57F      -0.090100
      2 C2          16.2400   -10.1530    -6.3350 c3         1 57F      -0.026100
      3 C3          15.2970    -9.7650    -7.4370 cc         1 57F      -0.035300
      4 C4          14.3910   -10.6140    -8.1680 cc         1 57F      -0.266600
      5 C5          13.7100    -9.7990    -9.0960 cd         1 57F      -0.051300
      6 C6          19.4680    -2.6070    -4.4540 c3         1 57F      -0.074800
      7 C7          15.1200    -8.4810    -7.9370 cd         1 57F      -0.266600
      8 C8          15.6960    -7.1540    -7.6940 c          1 57F       0.643700
      9 C11         17.1260    -5.8680    -6.1140 ca         1 57F      -0.065000
     10 C12         17.2730    -4.6880    -6.8300 ca         1 57F      -0.018000
     11 C13         18.0180    -3.6310    -6.3100 ca         1 57F      -0.291500
     12 C14         18.6490    -3.7120    -5.0590 ca         1 57F       0.047700
     13 C15         18.4900    -4.9020    -4.3550 ca         1 57F      -0.203000
     14 C16         17.7480    -5.9610    -4.8560 ca         1 57F       0.133100
     15 C27         14.1350   -12.0520    -8.0710 c          1 57F       0.606700
     16 C26         12.6770   -10.1090   -10.1180 c3         1 57F      -0.038800
     17 C29         15.0080   -12.9400    -7.2160 c3         1 57F      -0.187100
     18 C23         20.1840     0.1240    -8.8040 c3         1 57F      -0.112100
     19 C25         21.4450    -3.8400    -7.6940 c3         1 57F      -0.112100
     20 C22         20.4030    -0.7570    -7.5800 c3         1 57F       0.227300
     21 C24         20.3310    -3.1270    -8.4460 c3         1 57F       0.227300
     22 N6          14.1710    -8.5510    -8.9410 na         1 57F      -0.070000
     23 N10         16.4180    -6.9940    -6.5480 ns         1 57F      -0.131000
     24 N21         19.7190    -2.0550    -7.6450 n3         1 57F      -0.810500
     25 O28         13.2090   -12.5650    -8.7010 o          1 57F      -0.562100
     26 O9          15.5040    -6.2400    -8.5020 o          1 57F      -0.609100
     27 O19         17.7800    -1.0020    -6.5220 o          1 57F      -0.552000
     28 O20         17.3490    -2.4110    -8.5050 o          1 57F      -0.552000
     29 O17         17.5830    -7.1290    -4.1830 oh         1 57F      -0.553100
     30 S18         18.1310    -2.1680    -7.3070 sy         1 57F       1.211600
     31 H1          16.3120   -10.4070    -4.1770 hc         1 57F       0.038700
     32 H2          15.2140    -9.1240    -4.7000 hc         1 57F       0.038700
     33 H3          14.7440   -10.8070    -4.8930 hc         1 57F       0.038700
     34 H4          16.6370   -11.1480    -6.5200 hc         1 57F       0.051200
     35 H5          17.1120    -9.4970    -6.3520 hc         1 57F       0.051200
     36 H6          18.8660    -1.7120    -4.2960 hc         1 57F       0.062033
     37 H7          19.8790    -2.9270    -3.4980 hc         1 57F       0.062033
     38 H8          20.2930    -2.3240    -5.1100 hc         1 57F       0.062033
     39 H9          16.8080    -4.5930    -7.7940 ha         1 57F       0.181000
     40 H10         18.9580    -5.0120    -3.3830 ha         1 57F       0.115000
     41 H11         13.0050   -10.9190   -10.7690 hc         1 57F       0.063033
     42 H12         11.7500   -10.4410    -9.6470 hc         1 57F       0.063033
     43 H13         12.4700    -9.2260   -10.7240 hc         1 57F       0.063033
     44 H14         14.6470   -13.9630    -7.2990 hc         1 57F       0.059033
     45 H15         16.0460   -12.8970    -7.5500 hc         1 57F       0.059033
     46 H16         14.9830   -12.6340    -6.1700 hc         1 57F       0.059033
     47 H17         20.7650     1.0430    -8.7070 hc         1 57F       0.043867
     48 H18         20.5000    -0.3810    -9.7180 hc         1 57F       0.043867
     49 H19         19.1310     0.3930    -8.9060 hc         1 57F       0.043867
     50 H20         21.8880    -4.6090    -8.3310 hc         1 57F       0.043867
     51 H21         22.2350    -3.1460    -7.4040 hc         1 57F       0.043867
     52 H22         21.0570    -4.3180    -6.7940 hc         1 57F       0.043867
     53 H23         21.4640    -0.9800    -7.4550 h1         1 57F       0.056200
     54 H24         20.0750    -0.2450    -6.6780 h1         1 57F       0.056200
     55 H25         20.7030    -2.6990    -9.3790 h1         1 57F       0.056200
     56 H26         19.5530    -3.8380    -8.7210 h1         1 57F       0.056200
     57 H27         13.8880    -7.7460    -9.4810 hn         1 57F       0.373000
     58 H28         16.4200    -7.7590    -5.8940 hn         1 57F       0.177000
     59 H29         18.0480    -7.1060    -3.3350 ho         1 57F       0.477000
@<TRIPOS>BOND
     1     1     2 1   
     2     1    31 1   
     3     1    32 1   
     4     1    33 1   
     5     2     3 1   
     6     2    34 1   
     7     2    35 1   
     8     3     4 1   
     9     3     7 2   
    10     4     5 2   
    11     4    15 1   
    12     5    16 1   
    13     5    22 1   
    14     6    12 1   
    15     6    36 1   
    16     6    37 1   
    17     6    38 1   
    18     7     8 1   
    19     7    22 1   
    20     8    23 1   
    21     8    26 2   
    22     9    10 ar  
    23     9    14 ar  
    24     9    23 1   
    25    10    11 ar  
    26    10    39 1   
    27    11    12 ar  
    28    11    30 1   
    29    12    13 ar  
    30    13    14 ar  
    31    13    40 1   
    32    14    29 1   
    33    15    17 1   
    34    15    25 2   
    35    16    41 1   
    36    16    42 1   
    37    16    43 1   
    38    17    44 1   
    39    17    45 1   
    40    17    46 1   
    41    18    20 1   
    42    18    47 1   
    43    18    48 1   
    44    18    49 1   
    45    19    21 1   
    46    19    50 1   
    47    19    51 1   
    48    19    52 1   
    49    20    24 1   
    50    20    53 1   
    51    20    54 1   
    52    21    24 1   
    53    21    55 1   
    54    21    56 1   
    55    22    57 1   
    56    23    58 1   
    57    24    30 1   
    58    27    30 2   
    59    28    30 2   
    60    29    59 1   
@<TRIPOS>SUBSTRUCTURE
     1 57F         1 TEMP              0 ****  ****    0 ROOT
