@<TRIPOS>MOLECULE
57F
   59    60     1     0     0
SMALL
No Charge or Current Charge


@<TRIPOS>ATOM
      1 C1          15.1340    -9.5490    -4.9830 c3         1 57F      -0.090100
      2 C2          15.9150   -10.0260    -6.2270 c3         1 57F      -0.026100
      3 C3          15.2040    -9.7250    -7.5350 cc         1 57F      -0.035300
      4 C4          14.3510   -10.6390    -8.2650 cc         1 57F      -0.266600
      5 C5          13.9400   -10.0080    -9.4240 cd         1 57F      -0.051300
      6 C6          19.6740    -3.0310    -4.0550 c3         1 57F      -0.074800
      7 C7          15.2610    -8.5420    -8.2650 cd         1 57F      -0.266600
      8 C8          15.9530    -7.2400    -7.9860 c          1 57F       0.643700
      9 C11         17.3420    -6.0750    -6.1540 ca         1 57F      -0.065000
     10 C12         17.4050    -4.7650    -6.6780 ca         1 57F      -0.018000
     11 C13         18.1440    -3.7520    -6.0220 ca         1 57F      -0.291500
     12 C14         18.8380    -4.0550    -4.8220 ca         1 57F       0.047700
     13 C15         18.7620    -5.3610    -4.3030 ca         1 57F      -0.203000
     14 C16         18.0240    -6.3570    -4.9550 ca         1 57F       0.133100
     15 C27         13.9040   -12.0490    -7.9370 c          1 57F       0.606700
     16 C26         13.0510   -10.4680   -10.5580 c3         1 57F      -0.038800
     17 C29         14.2900   -12.7630    -6.6400 c3         1 57F      -0.187100
     18 C23         19.7450    -0.0290    -8.9650 c3         1 57F      -0.112100
     19 C25         21.8440    -3.0360    -8.2700 c3         1 57F      -0.112100
     20 C22         20.2150    -0.5400    -7.5860 c3         1 57F       0.227300
     21 C24         20.3100    -2.9970    -8.1280 c3         1 57F       0.227300
     22 N6          14.5040    -8.7420    -9.4190 na         1 57F      -0.070000
     23 N10         16.6090    -7.1330    -6.7710 ns         1 57F      -0.131000
     24 N21         19.8090    -1.9250    -7.2340 n3         1 57F      -0.810500
     25 O28         13.1940   -12.6840    -8.7070 o          1 57F      -0.562100
     26 O9          15.9110    -6.3320    -8.8090 o          1 57F      -0.609100
     27 O19         17.9490    -1.1210    -5.7080 o          1 57F      -0.552000
     28 O20         17.3760    -2.0900    -8.0070 o          1 57F      -0.552000
     29 O17         17.9810    -7.6110    -4.4170 oh         1 57F      -0.553100
     30 S18         18.1750    -2.1000    -6.7770 sy         1 57F       1.211600
     31 H1          15.6680    -9.8270    -4.0670 hc         1 57F       0.038700
     32 H2          15.0100    -8.4600    -4.9880 hc         1 57F       0.038700
     33 H3          14.1340    -9.9950    -4.9480 hc         1 57F       0.038700
     34 H4          16.1570   -11.0820    -6.1280 hc         1 57F       0.051200
     35 H5          16.9130    -9.5760    -6.2260 hc         1 57F       0.051200
     36 H6          19.0410    -2.2610    -3.6000 hc         1 57F       0.062033
     37 H7          20.2410    -3.4980    -3.2420 hc         1 57F       0.062033
     38 H8          20.4080    -2.5370    -4.7010 hc         1 57F       0.062033
     39 H9          16.8750    -4.5180    -7.5930 ha         1 57F       0.181000
     40 H10         19.2860    -5.6010    -3.3810 ha         1 57F       0.115000
     41 H11         13.4700   -11.3510   -11.0550 hc         1 57F       0.063033
     42 H12         12.0480   -10.7230   -10.1960 hc         1 57F       0.063033
     43 H13         12.9340    -9.6890   -11.3210 hc         1 57F       0.063033
     44 H14         13.7270   -13.6940    -6.5040 hc         1 57F       0.059033
     45 H15         15.3600   -12.9900    -6.6700 hc         1 57F       0.059033
     46 H16         14.1630   -12.1000    -5.7820 hc         1 57F       0.059033
     47 H17         20.1270     0.9840    -9.1350 hc         1 57F       0.043867
     48 H18         20.1170    -0.6680    -9.7740 hc         1 57F       0.043867
     49 H19         18.6520     0.0130    -9.0250 hc         1 57F       0.043867
     50 H20         22.1460    -3.9270    -8.8330 hc         1 57F       0.043867
     51 H21         22.2170    -2.1570    -8.8070 hc         1 57F       0.043867
     52 H22         22.3200    -3.0760    -7.2830 hc         1 57F       0.043867
     53 H23         21.3100    -0.4640    -7.5610 h1         1 57F       0.056200
     54 H24         19.8600     0.1640    -6.8210 h1         1 57F       0.056200
     55 H25         19.8620    -2.9090    -9.1270 h1         1 57F       0.056200
     56 H26         20.0140    -3.9810    -7.7410 h1         1 57F       0.056200
     57 H27         14.3720    -8.0470   -10.1490 hn         1 57F       0.373000
     58 H28         16.5530    -7.9620    -6.1980 hn         1 57F       0.177000
     59 H29         18.5170    -7.6150    -3.5950 ho         1 57F       0.477000
@<TRIPOS>BOND
     1     1     2 1   
     2     1    31 1   
     3     1    32 1   
     4     1    33 1   
     5     2     3 1   
     6     2    34 1   
     7     2    35 1   
     8     3     4 1   
     9     3     7 2   
    10     4     5 2   
    11     4    15 1   
    12     5    16 1   
    13     5    22 1   
    14     6    12 1   
    15     6    36 1   
    16     6    37 1   
    17     6    38 1   
    18     7     8 1   
    19     7    22 1   
    20     8    23 1   
    21     8    26 2   
    22     9    10 ar  
    23     9    14 ar  
    24     9    23 1   
    25    10    11 ar  
    26    10    39 1   
    27    11    12 ar  
    28    11    30 1   
    29    12    13 ar  
    30    13    14 ar  
    31    13    40 1   
    32    14    29 1   
    33    15    17 1   
    34    15    25 2   
    35    16    41 1   
    36    16    42 1   
    37    16    43 1   
    38    17    44 1   
    39    17    45 1   
    40    17    46 1   
    41    18    20 1   
    42    18    47 1   
    43    18    48 1   
    44    18    49 1   
    45    19    21 1   
    46    19    50 1   
    47    19    51 1   
    48    19    52 1   
    49    20    24 1   
    50    20    53 1   
    51    20    54 1   
    52    21    24 1   
    53    21    55 1   
    54    21    56 1   
    55    22    57 1   
    56    23    58 1   
    57    24    30 1   
    58    27    30 2   
    59    28    30 2   
    60    29    59 1   
@<TRIPOS>SUBSTRUCTURE
     1 57F         1 TEMP              0 ****  ****    0 ROOT
