@<TRIPOS>MOLECULE
57G
   57    58     1     0     0
SMALL
No Charge or Current Charge


@<TRIPOS>ATOM
      1 C11          1.0050    -1.5440     0.2060 ca         1 57G      -0.088000
      2 C12          1.9990    -0.6390    -0.2340 ca         1 57G       0.015000
      3 C7          -2.5830    -0.2690     0.1020 cc         1 57G      -0.270600
      4 C1          -3.1890     2.3540    -1.9800 c3         1 57G      -0.086100
      5 C3          -3.5710     0.6860    -0.0860 cd         1 57G      -0.010300
      6 C4          -4.8510     0.0550     0.1350 cd         1 57G      -0.268600
      7 C5          -4.6200    -1.2640     0.4760 cc         1 57G      -0.054300
      8 C8          -1.1040    -0.0750    -0.0570 c          1 57G       0.648700
      9 C25          6.5600     2.8130     0.4260 c3         1 57G      -0.105600
     10 C27         -6.2620     0.6090     0.0410 c          1 57G       0.606700
     11 O28         -7.2290    -0.1030     0.2990 o          1 57G      -0.519100
     12 C29         -6.5230     2.0890    -0.3880 c3         1 57G       0.063600
     13 C15          2.7470    -3.2000     0.6530 ca         1 57G      -0.212000
     14 C14          3.7310    -2.2980     0.2220 ca         1 57G       0.016000
     15 C16          1.3950    -2.8270     0.6450 ca         1 57G       0.152100
     16 C13          3.3580    -1.0160    -0.2190 ca         1 57G      -0.319500
     17 C26         -5.5630    -2.3950     0.8160 c3         1 57G      -0.039800
     18 C23          3.6230     1.8320     1.9530 c3         1 57G      -0.105600
     19 N6          -3.2490    -1.4450     0.4570 na         1 57G      -0.092000
     20 N10         -0.3880    -1.2320     0.2260 ns         1 57G      -0.155000
     21 N21          5.4430     0.5110     0.6900 n3         1 57G      -0.790500
     22 O9          -0.5700     0.9710    -0.3970 o          1 57G      -0.575100
     23 O19          5.5890    -0.6480    -1.5560 o          1 57G      -0.541500
     24 O20          4.0180     1.3650    -1.2710 o          1 57G      -0.541500
     25 O17          0.4540    -3.7220     1.0690 oh         1 57G      -0.539100
     26 S18          4.6330     0.1340    -0.7640 sy         1 57G       1.194600
     27 O1          -7.9130     2.4010    -0.6720 oh         1 57G      -0.630000
     28 H1           1.7330     0.3520    -0.5890 ha         1 57G       0.156000
     29 H2          -4.0820     2.0010    -2.5070 hc         1 57G       0.039367
     30 H3          -3.0520     3.4180    -2.2060 hc         1 57G       0.039367
     31 H4          -2.3260     1.8070    -2.3760 hc         1 57G       0.039367
     32 H5          -2.4120     2.5090     0.0310 hc         1 57G       0.052200
     33 H6          -4.0850     2.8030    -0.0550 hc         1 57G       0.052200
     34 H7           7.2780     0.9190    -0.2890 h1         1 57G       0.046450
     35 H8           7.3250     1.0940     1.4530 h1         1 57G       0.046450
     36 H9           7.5320     3.2520     0.1750 hc         1 57G       0.046200
     37 H10          5.8540     3.0810    -0.3670 hc         1 57G       0.046200
     38 H11          6.2320     3.2670     1.3670 hc         1 57G       0.046200
     39 H12         -6.1610     2.7300     0.4250 h1         1 57G       0.038700
     40 H13         -5.9210     2.2870    -1.2810 h1         1 57G       0.038700
     41 H14          3.0450    -4.1890     0.9930 ha         1 57G       0.120000
     42 H15          4.7800    -2.5940     0.2380 ha         1 57G       0.138000
     43 H16         -6.1630    -2.1540     1.7010 hc         1 57G       0.061700
     44 H17         -6.2440    -2.6030    -0.0160 hc         1 57G       0.061700
     45 H18         -5.0170    -3.3210     1.0330 hc         1 57G       0.061700
     46 H19          2.8420     1.6930     1.1990 hc         1 57G       0.046200
     47 H20          3.1320     1.8710     2.9320 hc         1 57G       0.046200
     48 H21          4.0980     2.8010     1.7800 hc         1 57G       0.046200
     49 H22          5.3280     0.8170     2.7780 h1         1 57G       0.046450
     50 H23          4.1000    -0.2560     2.1470 h1         1 57G       0.046450
     51 H24         -2.8030    -2.3330     0.6660 hn         1 57G       0.352000
     52 H25         -0.9590    -2.0140     0.5100 hn         1 57G       0.159000
     53 H26          0.9110    -4.5490     1.3330 ho         1 57G       0.479000
     54 H27         -7.9590     3.3520    -0.9190 ho         1 57G       0.441000
     55 C2          -3.3190     2.1390    -0.4570 c3         1 57G      -0.019100
     56 C24          6.7000     1.2860     0.5700 c3         1 57G       0.235800
     57 C22          4.6440     0.6730     1.9300 c3         1 57G       0.235800
@<TRIPOS>BOND
     1     1     2 ar  
     2     1    15 ar  
     3     1    20 1   
     4     2    16 ar  
     5     2    28 1   
     6     3     5 2   
     7     3     8 1   
     8     3    19 1   
     9     4    29 1   
    10     4    30 1   
    11     4    31 1   
    12     4    55 1   
    13     5     6 1   
    14     5    55 1   
    15     6     7 2   
    16     6    10 1   
    17     7    17 1   
    18     7    19 1   
    19     8    20 1   
    20     8    22 2   
    21     9    36 1   
    22     9    37 1   
    23     9    38 1   
    24     9    56 1   
    25    10    11 2   
    26    10    12 1   
    27    12    27 1   
    28    12    39 1   
    29    12    40 1   
    30    13    14 ar  
    31    13    15 ar  
    32    13    41 1   
    33    14    16 ar  
    34    14    42 1   
    35    15    25 1   
    36    16    26 1   
    37    17    43 1   
    38    17    44 1   
    39    17    45 1   
    40    18    46 1   
    41    18    47 1   
    42    18    48 1   
    43    18    57 1   
    44    19    51 1   
    45    20    52 1   
    46    21    26 1   
    47    21    56 1   
    48    21    57 1   
    49    23    26 2   
    50    24    26 2   
    51    25    53 1   
    52    27    54 1   
    53    32    55 1   
    54    33    55 1   
    55    34    56 1   
    56    35    56 1   
    57    49    57 1   
    58    50    57 1   
@<TRIPOS>SUBSTRUCTURE
     1 57G         1 TEMP              0 ****  ****    0 ROOT
