@<TRIPOS>MOLECULE
57G
   57    58     1     0     0
SMALL
abcg2


@<TRIPOS>ATOM
      1 C11          0.9620    -1.7990     0.4560 ca         1 57G      -0.088000
      2 C12          1.9070    -1.0820    -0.2590 ca         1 57G       0.015000
      3 C7          -2.4650    -0.4460    -0.0440 cc         1 57G      -0.270600
      4 C1          -3.0190     2.9260    -0.0730 c3         1 57G      -0.086100
      5 C3          -3.4330     0.4740     0.2960 cd         1 57G      -0.010300
      6 C4          -4.6840    -0.0850    -0.1220 cd         1 57G      -0.268600
      7 C5          -4.4110    -1.3250    -0.7120 cc         1 57G      -0.054300
      8 C8          -1.0180    -0.3980     0.1730 c          1 57G       0.648700
      9 C25          7.0280     1.5920     0.6960 c3         1 57G      -0.105600
     10 C27         -6.0530     0.4230    -0.0170 c          1 57G       0.606700
     11 O28         -6.9820    -0.1490    -0.5550 o          1 57G      -0.519100
     12 C29         -6.3180     1.6690     0.8010 c3         1 57G       0.063600
     13 C15          2.7460    -2.9590     1.6070 ca         1 57G      -0.212000
     14 C14          3.6870    -2.2170     0.9170 ca         1 57G       0.016000
     15 C16          1.3870    -2.7480     1.3980 ca         1 57G       0.152100
     16 C13          3.2600    -1.2760    -0.0110 ca         1 57G      -0.319500
     17 C26         -5.2870    -2.3430    -1.3470 c3         1 57G      -0.039800
     18 C23          3.9870     3.3100    -0.6820 c3         1 57G      -0.105600
     19 N6          -3.0910    -1.5200    -0.6350 na         1 57G      -0.092000
     20 N10         -0.4110    -1.6230     0.2490 ns         1 57G      -0.155000
     21 N21          4.6640     1.0540     0.1140 n3         1 57G      -0.790500
     22 O9          -0.4030     0.6500     0.2780 o          1 57G      -0.575100
     23 O19          5.7020    -0.9800    -0.8820 o          1 57G      -0.541500
     24 O20          3.8290     0.2000    -2.0790 o          1 57G      -0.541500
     25 O17          0.4340    -3.4250     2.0510 oh         1 57G      -0.539100
     26 S18          4.4410    -0.2540    -0.8380 sy         1 57G       1.194600
     27 O1          -7.6830     1.9560     0.7720 oh         1 57G      -0.630000
     28 H1           1.5840    -0.3880    -1.0210 ha         1 57G       0.156000
     29 H2          -3.9020     3.0160    -0.7070 hc         1 57G       0.039367
     30 H3          -2.8710     3.8830     0.4290 hc         1 57G       0.039367
     31 H4          -2.1630     2.7480    -0.7230 hc         1 57G       0.039367
     32 H5          -2.2460     1.7340     1.5300 hc         1 57G       0.052200
     33 H6          -3.9470     2.0380     1.6630 hc         1 57G       0.052200
     34 H7           5.8240     0.0180     1.5390 h1         1 57G       0.046450
     35 H8           5.3080     1.6160     1.9890 h1         1 57G       0.046450
     36 H9           7.7450     1.5640     1.5170 hc         1 57G       0.046200
     37 H10          7.4370     1.0100    -0.1290 hc         1 57G       0.046200
     38 H11          6.9330     2.6270     0.3690 hc         1 57G       0.046200
     39 H12         -5.9520     1.4840     1.8210 h1         1 57G       0.038700
     40 H13         -5.7120     2.4920     0.3990 h1         1 57G       0.038700
     41 H14          3.0700    -3.7020     2.3260 ha         1 57G       0.120000
     42 H15          4.7380    -2.3910     1.1000 ha         1 57G       0.138000
     43 H16         -6.0720    -2.6730    -0.6690 hc         1 57G       0.061700
     44 H17         -5.7760    -1.9480    -2.2370 hc         1 57G       0.061700
     45 H18         -4.7040    -3.2160    -1.6390 hc         1 57G       0.061700
     46 H19          4.1310     3.0420    -1.7280 hc         1 57G       0.046200
     47 H20          3.1850     4.0470    -0.6260 hc         1 57G       0.046200
     48 H21          4.9000     3.7830    -0.3220 hc         1 57G       0.046200
     49 H22          3.4740     2.3650     1.1880 h1         1 57G       0.046450
     50 H23          2.6750     1.6800    -0.1920 h1         1 57G       0.046450
     51 H24         -2.6230    -2.3090    -1.0540 hn         1 57G       0.352000
     52 H25         -0.9940    -2.4270     0.4280 hn         1 57G       0.159000
     53 H26          0.8210    -4.0900     2.6320 ho         1 57G       0.479000
     54 H27         -7.8250     2.7390     1.3120 ho         1 57G       0.441000
     55 C2          -3.1630     1.7970     0.9460 c3         1 57G      -0.019100
     56 C24          5.6940     1.0310     1.1530 c3         1 57G       0.235800
     57 C22          3.6300     2.0880     0.1440 c3         1 57G       0.235800
@<TRIPOS>BOND
     1     1     2 ar  
     2     1    15 ar  
     3     1    20 1   
     4     2    16 ar  
     5     2    28 1   
     6     3     5 2   
     7     3     8 1   
     8     3    19 1   
     9     4    29 1   
    10     4    30 1   
    11     4    31 1   
    12     4    55 1   
    13     5     6 1   
    14     5    55 1   
    15     6     7 2   
    16     6    10 1   
    17     7    17 1   
    18     7    19 1   
    19     8    20 1   
    20     8    22 2   
    21     9    36 1   
    22     9    37 1   
    23     9    38 1   
    24     9    56 1   
    25    10    11 2   
    26    10    12 1   
    27    12    27 1   
    28    12    39 1   
    29    12    40 1   
    30    13    14 ar  
    31    13    15 ar  
    32    13    41 1   
    33    14    16 ar  
    34    14    42 1   
    35    15    25 1   
    36    16    26 1   
    37    17    43 1   
    38    17    44 1   
    39    17    45 1   
    40    18    46 1   
    41    18    47 1   
    42    18    48 1   
    43    18    57 1   
    44    19    51 1   
    45    20    52 1   
    46    21    26 1   
    47    21    56 1   
    48    21    57 1   
    49    23    26 2   
    50    24    26 2   
    51    25    53 1   
    52    27    54 1   
    53    32    55 1   
    54    33    55 1   
    55    34    56 1   
    56    35    56 1   
    57    49    57 1   
    58    50    57 1   
@<TRIPOS>SUBSTRUCTURE
     1 57G         1 TEMP              0 ****  ****    0 ROOT
