@<TRIPOS>MOLECULE
57H
   12    11     1     0     0
SMALL
No Charge or Current Charge


@<TRIPOS>ATOM
      1 PAG         -0.8220     0.0010     0.0240 p5         1 57H       1.300500
      2 OAD         -1.8760    -0.7270    -0.7400 o          1 57H      -0.931833
      3 OAB         -0.7980    -0.4630     1.4410 o          1 57H      -0.931833
      4 CAF          0.8150    -0.3640    -0.7560 c3         1 57H      -0.365200
      5 O1          -1.0630     1.4710    -0.0390 o          1 57H      -0.931833
      6 H2           0.9550    -1.4500    -0.7440 hc         1 57H       0.017200
      7 H3           0.7300    -0.0650    -1.8060 hc         1 57H       0.017200
      8 C1           1.9950     0.3420    -0.1210 c2         1 57H      -0.059200
      9 C2           3.1840    -0.2290     0.1150 c2         1 57H      -0.487000
     10 H4           1.8160     1.3870     0.1490 ha         1 57H       0.145000
     11 H6           3.3790    -1.2690    -0.1460 ha         1 57H       0.113500
     12 H7           3.9980     0.3290     0.5770 ha         1 57H       0.113500
@<TRIPOS>BOND
     1     1     2 1   
     2     1     3 1   
     3     1     4 1   
     4     1     5 1   
     5     4     6 1   
     6     4     7 1   
     7     4     8 1   
     8     8     9 2   
     9     8    10 1   
    10     9    11 1   
    11     9    12 1   
@<TRIPOS>SUBSTRUCTURE
     1 57H         1 TEMP              0 ****  ****    0 ROOT
