@<TRIPOS>MOLECULE
57H
   12    11     1     0     0
SMALL
abcg2


@<TRIPOS>ATOM
      1 PAG         -0.7780    -0.0330     0.1050 p5         1 57H       1.300500
      2 OAD         -1.8630    -0.7450    -0.7140 o          1 57H      -0.931833
      3 OAB         -0.5290    -0.6610     1.4790 o          1 57H      -0.931833
      4 CAF          0.8020    -0.3300    -0.8710 c3         1 57H      -0.365200
      5 O1          -0.9240     1.4940     0.1340 o          1 57H      -0.931833
      6 H2           0.9940    -1.4040    -0.9640 hc         1 57H       0.017200
      7 H3           0.6350     0.0530    -1.8840 hc         1 57H       0.017200
      8 C1           1.9760     0.3530    -0.2740 c2         1 57H      -0.059200
      9 C2           3.0550    -0.2330     0.2420 c2         1 57H      -0.487000
     10 H4           1.9110     1.4370    -0.2290 ha         1 57H       0.145000
     11 H6           3.1790    -1.3100     0.2340 ha         1 57H       0.113500
     12 H7           3.8540     0.3410     0.6950 ha         1 57H       0.113500
@<TRIPOS>BOND
     1     1     2 1   
     2     1     3 1   
     3     1     4 1   
     4     1     5 1   
     5     4     6 1   
     6     4     7 1   
     7     4     8 1   
     8     8     9 2   
     9     8    10 1   
    10     9    11 1   
    11     9    12 1   
@<TRIPOS>SUBSTRUCTURE
     1 57H         1 TEMP              0 ****  ****    0 ROOT
