@<TRIPOS>MOLECULE
57I
   56    58     1     0     0
SMALL
No Charge or Current Charge


@<TRIPOS>ATOM
      1 C4          17.0350     7.7690    32.0410 c6         1 57I       0.132300
      2 C5          18.5480     7.3950    32.1840 c6         1 57I       0.180300
      3 C6          19.0400     6.4110    31.0710 c3         1 57I       0.172600
      4 OBF         14.8790    12.3020    31.2040 o          1 57I      -0.391500
      5 OBG         14.5500    11.1510    29.3800 o          1 57I      -0.391500
      6 CBB         16.5070    12.4260    29.5340 ca         1 57I      -0.118200
      7 CBA         16.5130    12.8540    28.1860 ca         1 57I      -0.060000
      8 CAZ         17.6570    13.4530    27.6340 ca         1 57I      -0.098000
      9 CAY         18.8040    13.6350    28.4220 ca         1 57I      -0.077000
     10 CAX         18.8130    13.2050    29.7590 ca         1 57I      -0.069000
     11 CAW         17.6790    12.5870    30.3260 ca         1 57I      -0.057600
     12 CAV         17.7750    12.0870    31.7440 c          1 57I       0.630700
     13 OBE         18.1580    12.7900    32.6690 o          1 57I      -0.467000
     14 O2          17.4200    10.7650    31.8710 os         1 57I      -0.402100
     15 C2          17.6270    10.0320    33.1160 c6         1 57I       0.120300
     16 C1          19.0970     9.4930    33.2390 c6         1 57I       0.384300
     17 O1          20.1000    10.5250    33.2390 os         1 57I      -0.443000
     18 CAM         20.2620    11.2650    34.4630 c3         1 57I       0.145900
     19 O5          19.3670     8.5920    32.1490 os         1 57I      -0.421000
     20 O6          20.4220     6.0190    31.2280 oh         1 57I      -0.724000
     21 O4          16.7390     8.3270    30.7440 oh         1 57I      -0.701000
     22 C3          16.6680     8.8000    33.1690 c6         1 57I       0.131300
     23 O3          15.2910     9.2440    33.0910 os         1 57I      -0.436100
     24 CAN         14.2500     8.3800    33.3230 c          1 57I       0.609700
     25 OBD         14.4050     7.2160    33.6660 o          1 57I      -0.490000
     26 CAO         12.8890     9.0180    33.1930 ca         1 57I      -0.162600
     27 CAP         12.7400    10.4200    33.1080 ca         1 57I      -0.043500
     28 CAQ         11.4630    10.9950    32.9850 ca         1 57I      -0.131000
     29 CAR         10.3150    10.1830    32.9500 ca         1 57I      -0.040300
     30 CAU          8.9360    10.8070    32.8130 c3         1 57I      -0.053800
     31 CAS         10.4580     8.7870    33.0390 ca         1 57I      -0.131000
     32 CAT         11.7330     8.2070    33.1620 ca         1 57I      -0.043500
     33 H1          16.4520     6.8490    32.1890 h1         1 57I       0.054700
     34 H2          18.6990     6.8960    33.1530 h1         1 57I       0.052700
     35 H3          18.8960     6.8950    30.0950 h1         1 57I       0.046700
     36 H4          18.3920     5.5240    31.0920 h1         1 57I       0.046700
     37 H6          17.6510    13.7840    26.5980 ha         1 57I       0.131000
     38 H7          19.6880    14.1040    27.9950 ha         1 57I       0.129000
     39 H8          19.7150    13.3360    30.3550 ha         1 57I       0.143000
     40 H9          17.3930    10.6840    33.9700 h1         1 57I       0.085700
     41 H10         19.1890     8.9300    34.1810 h2         1 57I       0.030700
     42 H11         21.0210    12.0470    34.3370 h1         1 57I       0.042700
     43 H12         19.3250    11.7470    34.7690 h1         1 57I       0.042700
     44 H13         20.5890    10.6030    35.2760 h1         1 57I       0.042700
     45 H14         20.6570     5.4720    30.4420 ho         1 57I       0.505000
     46 H15         16.9480     9.2890    30.8280 ho         1 57I       0.520000
     47 H16         16.8070     8.3100    34.1450 h1         1 57I       0.080700
     48 H17         13.6080    11.0730    33.1460 ha         1 57I       0.142000
     49 H18         11.3680    12.0760    32.9180 ha         1 57I       0.119500
     50 H19          8.6570    10.9100    31.7570 hc         1 57I       0.047033
     51 H20          8.1690    10.1960    33.3040 hc         1 57I       0.047033
     52 H21          8.9010    11.8050    33.2680 hc         1 57I       0.047033
     53 H22          9.5790     8.1460    33.0110 ha         1 57I       0.119500
     54 H23         11.8200     7.1240    33.2270 ha         1 57I       0.142000
     55 H5          15.6230    12.7410    27.5680 ha         1 57I       0.150000
     56 NBC         15.2490    11.8660    30.1080 no         1 57I       0.677200
@<TRIPOS>BOND
     1     1     2 1   
     2     1    21 1   
     3     1    22 1   
     4     1    33 1   
     5     2     3 1   
     6     2    19 1   
     7     2    34 1   
     8     3    20 1   
     9     3    35 1   
    10     3    36 1   
    11     4    56 1   
    12     5    56 1   
    13     6     7 ar  
    14     6    11 ar  
    15     6    56 1   
    16     7     8 ar  
    17     7    55 1   
    18     8     9 ar  
    19     8    37 1   
    20     9    10 ar  
    21     9    38 1   
    22    10    11 ar  
    23    10    39 1   
    24    11    12 1   
    25    12    13 2   
    26    12    14 1   
    27    14    15 1   
    28    15    16 1   
    29    15    22 1   
    30    15    40 1   
    31    16    17 1   
    32    16    19 1   
    33    16    41 1   
    34    17    18 1   
    35    18    42 1   
    36    18    43 1   
    37    18    44 1   
    38    20    45 1   
    39    21    46 1   
    40    22    23 1   
    41    22    47 1   
    42    23    24 1   
    43    24    25 2   
    44    24    26 1   
    45    26    27 ar  
    46    26    32 ar  
    47    27    28 ar  
    48    27    48 1   
    49    28    29 ar  
    50    28    49 1   
    51    29    30 1   
    52    29    31 ar  
    53    30    50 1   
    54    30    51 1   
    55    30    52 1   
    56    31    32 ar  
    57    31    53 1   
    58    32    54 1   
@<TRIPOS>SUBSTRUCTURE
     1 57I         1 TEMP              0 ****  ****    0 ROOT
