@<TRIPOS>MOLECULE
57I
   56    58     1     0     0
SMALL
abcg2


@<TRIPOS>ATOM
      1 C4          16.9080     7.7960    31.9600 c6         1 57I       0.132300
      2 C5          18.3910     7.4320    32.0380 c6         1 57I       0.180300
      3 C6          18.8190     6.5020    30.9270 c3         1 57I       0.172600
      4 OBF         14.9980    12.1910    31.0350 o          1 57I      -0.391500
      5 OBG         14.7990    11.3700    29.0450 o          1 57I      -0.391500
      6 CBB         16.7170    12.5550    29.5530 ca         1 57I      -0.118200
      7 CBA         16.9020    13.0070    28.2560 ca         1 57I      -0.060000
      8 CAZ         18.0960    13.6370    27.9310 ca         1 57I      -0.098000
      9 CAY         19.0780    13.8040    28.8990 ca         1 57I      -0.077000
     10 CAX         18.8800    13.3340    30.1940 ca         1 57I      -0.069000
     11 CAW         17.6940    12.6950    30.5380 ca         1 57I      -0.057600
     12 CAV         17.5900    12.1140    31.9130 c          1 57I       0.630700
     13 OBE         17.7290    12.7550    32.9250 o          1 57I      -0.467000
     14 O2          17.4040    10.7910    31.8430 os         1 57I      -0.402100
     15 C2          17.5630    10.0130    33.0420 c6         1 57I       0.120300
     16 C1          19.0090     9.4750    33.0650 c6         1 57I       0.384300
     17 O1          19.9430    10.4940    32.8930 os         1 57I      -0.443000
     18 CAM         20.3500    11.1300    34.1050 c3         1 57I       0.145900
     19 O5          19.2200     8.5980    31.9870 os         1 57I      -0.421000
     20 O6          20.1030     5.9710    31.2550 oh         1 57I      -0.724000
     21 O4          16.5990     8.2570    30.6520 oh         1 57I      -0.701000
     22 C3          16.6130     8.8300    33.0470 c6         1 57I       0.131300
     23 O3          15.2610     9.3030    32.9330 os         1 57I      -0.436100
     24 CAN         14.3090     8.6070    33.6040 c          1 57I       0.609700
     25 OBD         14.5700     7.6630    34.3180 o          1 57I      -0.490000
     26 CAO         12.9470     9.1250    33.3620 ca         1 57I      -0.162600
     27 CAP         12.6980    10.1940    32.4980 ca         1 57I      -0.043500
     28 CAQ         11.3990    10.6380    32.3010 ca         1 57I      -0.131000
     29 CAR         10.3210    10.0320    32.9510 ca         1 57I      -0.040300
     30 CAU          8.9130    10.4970    32.7090 c3         1 57I      -0.053800
     31 CAS         10.5820     8.9650    33.8160 ca         1 57I      -0.131000
     32 CAT         11.8760     8.5130    34.0200 ca         1 57I      -0.043500
     33 H1          16.3300     6.8940    32.1860 h1         1 57I       0.054700
     34 H2          18.5510     6.9240    32.9990 h1         1 57I       0.052700
     35 H3          18.8520     7.0520    29.9830 h1         1 57I       0.046700
     36 H4          18.0780     5.7010    30.8380 h1         1 57I       0.046700
     37 H6          18.2500    14.0050    26.9260 ha         1 57I       0.131000
     38 H7          20.0080    14.2970    28.6480 ha         1 57I       0.129000
     39 H8          19.6560    13.4400    30.9400 ha         1 57I       0.143000
     40 H9          17.3790    10.6450    33.9090 h1         1 57I       0.085700
     41 H10         19.1700     8.9520    34.0210 h2         1 57I       0.030700
     42 H11         21.1050    11.8630    33.8290 h1         1 57I       0.042700
     43 H12         19.5140    11.6420    34.5860 h1         1 57I       0.042700
     44 H13         20.7810    10.4000    34.7970 h1         1 57I       0.042700
     45 H14         20.4170     5.4580    30.5010 ho         1 57I       0.505000
     46 H15         15.7060     8.6240    30.6610 ho         1 57I       0.520000
     47 H16         16.7330     8.3350    34.0110 h1         1 57I       0.080700
     48 H17         13.5150    10.6760    31.9840 ha         1 57I       0.142000
     49 H18         11.2170    11.4700    31.6310 ha         1 57I       0.119500
     50 H19          8.4570     9.9200    31.8980 hc         1 57I       0.047033
     51 H20          8.2930    10.3580    33.5960 hc         1 57I       0.047033
     52 H21          8.8870    11.5470    32.4190 hc         1 57I       0.047033
     53 H22          9.7610     8.4870    34.3350 ha         1 57I       0.119500
     54 H23         12.0680     7.6880    34.6910 ha         1 57I       0.142000
     55 H5          16.1110    12.8900    27.5290 ha         1 57I       0.150000
     56 NBC         15.4130    11.9880    29.9010 no         1 57I       0.677200
@<TRIPOS>BOND
     1     1     2 1   
     2     1    21 1   
     3     1    22 1   
     4     1    33 1   
     5     2     3 1   
     6     2    19 1   
     7     2    34 1   
     8     3    20 1   
     9     3    35 1   
    10     3    36 1   
    11     4    56 1   
    12     5    56 1   
    13     6     7 ar  
    14     6    11 ar  
    15     6    56 1   
    16     7     8 ar  
    17     7    55 1   
    18     8     9 ar  
    19     8    37 1   
    20     9    10 ar  
    21     9    38 1   
    22    10    11 ar  
    23    10    39 1   
    24    11    12 1   
    25    12    13 2   
    26    12    14 1   
    27    14    15 1   
    28    15    16 1   
    29    15    22 1   
    30    15    40 1   
    31    16    17 1   
    32    16    19 1   
    33    16    41 1   
    34    17    18 1   
    35    18    42 1   
    36    18    43 1   
    37    18    44 1   
    38    20    45 1   
    39    21    46 1   
    40    22    23 1   
    41    22    47 1   
    42    23    24 1   
    43    24    25 2   
    44    24    26 1   
    45    26    27 ar  
    46    26    32 ar  
    47    27    28 ar  
    48    27    48 1   
    49    28    29 ar  
    50    28    49 1   
    51    29    30 1   
    52    29    31 ar  
    53    30    50 1   
    54    30    51 1   
    55    30    52 1   
    56    31    32 ar  
    57    31    53 1   
    58    32    54 1   
@<TRIPOS>SUBSTRUCTURE
     1 57I         1 TEMP              0 ****  ****    0 ROOT
