@<TRIPOS>MOLECULE
57J
   55    59     1     0     0
SMALL
bcc


@<TRIPOS>ATOM
      1 N3          -1.0130     1.3310    -1.0670 n          1 57J      -0.475800
      2 C4          -3.2710     0.6320    -0.4490 ca         1 57J      -0.179600
      3 N2          -5.7580    -3.1870    -0.2660 nc         1 57J      -0.515100
      4 C7          -5.2310    -1.1110     0.3670 ca         1 57J      -0.023200
      5 C6          -4.3300    -1.4910    -0.6400 ca         1 57J      -0.242900
      6 C9          -2.3130     1.6770    -0.9240 c          1 57J       0.685700
      7 C13          0.6150     0.7490     0.6710 c6         1 57J      -0.109400
      8 C20          4.7530    -1.7410    -0.9720 ca         1 57J      -0.009300
      9 C21          3.7990    -0.8100    -1.3490 ca         1 57J      -0.181000
     10 C8          -4.7310    -2.8100    -0.9860 cd         1 57J       0.358800
     11 C18          4.8380    -0.7440     1.2060 ca         1 57J      -0.034000
     12 C16          3.4650     1.2700     1.7560 c          1 57J       0.596700
     13 C19          5.2840    -1.7170     0.3360 ca         1 57J      -0.126300
     14 C2          -5.1950     0.1470     0.9920 ca         1 57J      -0.101300
     15 C3          -4.2090     0.9980     0.5460 ca         1 57J      -0.054000
     16 C5          -3.3280    -0.6060    -1.0520 ca         1 57J      -0.024000
     17 N1          -6.0550    -2.1670     0.5440 na         1 57J      -0.010100
     18 O1          -2.7390     2.7890    -1.2130 o          1 57J      -0.597100
     19 C10         -0.0770     2.2520    -1.6920 c6         1 57J       0.101000
     20 C11          0.9070     2.8180    -0.6770 c6         1 57J      -0.109400
     21 C12          1.6390     1.7210     0.0830 c6         1 57J       0.174800
     22 C14         -0.3670     0.2280    -0.3730 c6         1 57J       0.101000
     23 C15          2.5510     2.3060     1.1540 c6         1 57J      -0.209400
     24 C17          3.8830     0.2090     0.8340 ca         1 57J      -0.267600
     25 C22          3.3560     0.1640    -0.4570 ca         1 57J       0.185100
     26 O3           2.4340     1.0350    -0.8980 os         1 57J      -0.322900
     27 C23          5.2050    -2.7820    -1.9490 c3         1 57J      -0.055800
     28 C24          6.3050    -2.7280     0.7680 c3         1 57J      -0.039800
     29 H13          1.1020    -0.1040     1.1520 hc         1 57J       0.064200
     30 H12          0.0590     1.2700     1.4550 hc         1 57J       0.064200
     31 H19          3.3830    -0.8350    -2.3490 ha         1 57J       0.146000
     32 H7          -4.3010    -3.4720    -1.7220 h4         1 57J       0.051800
     33 H18          5.2400    -0.7040     2.2120 ha         1 57J       0.149000
     34 H3          -6.1460    -0.1770     2.8940 hc         1 57J       0.044700
     35 H4          -5.9880     1.5180     2.4380 hc         1 57J       0.044700
     36 H2          -7.2030     0.5010     1.6660 hc         1 57J       0.044700
     37 H5          -4.1430     1.9880     0.9820 ha         1 57J       0.145000
     38 H6          -2.6270    -0.8870    -1.8280 ha         1 57J       0.144000
     39 H1          -6.8290    -2.2530     1.1830 hn         1 57J       0.327700
     40 H9           0.4580     1.7130    -2.4780 h1         1 57J       0.064950
     41 H8          -0.6260     3.0580    -2.1680 h1         1 57J       0.064950
     42 H11          1.6280     3.4640    -1.1850 hc         1 57J       0.064200
     43 H10          0.3720     3.4410     0.0450 hc         1 57J       0.064200
     44 H14         -1.1070    -0.3880     0.1280 h1         1 57J       0.064950
     45 H15          0.1420    -0.4100    -1.1000 h1         1 57J       0.064950
     46 H17          1.9630     2.7910     1.9340 hc         1 57J       0.084200
     47 H16          3.1890     3.0790     0.7050 hc         1 57J       0.084200
     48 H21          4.9440    -3.7850    -1.6040 hc         1 57J       0.047700
     49 H20          4.7500    -2.6360    -2.9280 hc         1 57J       0.047700
     50 H22          6.2890    -2.7640    -2.0750 hc         1 57J       0.047700
     51 H23          7.1840    -2.7200     0.1210 hc         1 57J       0.041700
     52 H25          6.6410    -2.5360     1.7850 hc         1 57J       0.041700
     53 H24          5.9020    -3.7430     0.7380 hc         1 57J       0.041700
     54 O2           3.8610     1.3430     2.9030 o          1 57J      -0.522100
     55 C1          -6.1820     0.5180     2.0530 c3         1 57J      -0.042800
@<TRIPOS>BOND
     1     1     6 1   
     2     1    19 1   
     3     1    22 1   
     4     2     6 1   
     5     2    15 ar  
     6     2    16 ar  
     7     3    10 2   
     8     3    17 1   
     9     4     5 ar  
    10     4    14 ar  
    11     4    17 1   
    12     5    10 1   
    13     5    16 ar  
    14     6    18 2   
    15     7    21 1   
    16     7    22 1   
    17     7    29 1   
    18     7    30 1   
    19     8     9 ar  
    20     8    13 ar  
    21     8    27 1   
    22     9    25 ar  
    23     9    31 1   
    24    10    32 1   
    25    11    13 ar  
    26    11    24 ar  
    27    11    33 1   
    28    12    23 1   
    29    12    24 1   
    30    12    54 2   
    31    13    28 1   
    32    14    15 ar  
    33    14    55 1   
    34    15    37 1   
    35    16    38 1   
    36    17    39 1   
    37    19    20 1   
    38    19    40 1   
    39    19    41 1   
    40    20    21 1   
    41    20    42 1   
    42    20    43 1   
    43    21    23 1   
    44    21    26 1   
    45    22    44 1   
    46    22    45 1   
    47    23    46 1   
    48    23    47 1   
    49    24    25 ar  
    50    25    26 1   
    51    27    48 1   
    52    27    49 1   
    53    27    50 1   
    54    28    51 1   
    55    28    52 1   
    56    28    53 1   
    57    34    55 1   
    58    35    55 1   
    59    36    55 1   
@<TRIPOS>SUBSTRUCTURE
     1 57J         1 TEMP              0 ****  ****    0 ROOT
