@<TRIPOS>MOLECULE
57J
   55    59     1     0     0
SMALL
No Charge or Current Charge


@<TRIPOS>ATOM
      1 N3          -1.0610     1.3640    -0.9940 n          1 57J      -0.408800
      2 C4          -3.4030     0.7420    -0.3070 ca         1 57J      -0.179600
      3 N2          -5.7130    -3.3080    -0.2490 nc         1 57J      -0.515100
      4 C7          -5.3720    -1.1250     0.3630 ca         1 57J      -0.023200
      5 C6          -4.3660    -1.4640    -0.4810 ca         1 57J      -0.242900
      6 C9          -2.3740     1.7840    -0.6780 c          1 57J       0.618700
      7 C13          0.6600     0.7870     0.7420 c6         1 57J      -0.109400
      8 C20          4.8750    -1.8170    -1.0320 ca         1 57J      -0.009300
      9 C21          3.8860    -0.8870    -1.4050 ca         1 57J      -0.163000
     10 C8          -4.6070    -2.8380    -0.8510 cd         1 57J       0.358800
     11 C18          4.9920    -0.7600     1.1670 ca         1 57J      -0.016000
     12 C16          3.5480     1.2460     1.7120 c          1 57J       0.596700
     13 C19          5.4300    -1.7550     0.2690 ca         1 57J      -0.126300
     14 C2          -5.4740     0.1620     0.9130 ca         1 57J      -0.101300
     15 C3          -4.4750     1.0990     0.5590 ca         1 57J      -0.036000
     16 C5          -3.3610    -0.5650    -0.8570 ca         1 57J      -0.006000
     17 N1          -6.1930    -2.2270     0.5160 na         1 57J      -0.060400
     18 O1          -2.6990     2.9600    -0.7860 o          1 57J      -0.597100
     19 C10         -0.1010     2.2780    -1.6700 c6         1 57J       0.101000
     20 C11          0.9420     2.8490    -0.6800 c6         1 57J      -0.109400
     21 C12          1.7030     1.7180     0.0590 c6         1 57J       0.198000
     22 C14         -0.3860     0.2530    -0.2660 c6         1 57J       0.101000
     23 C15          2.6720     2.3250     1.0950 c6         1 57J      -0.209400
     24 C17          4.0070     0.1700     0.7810 ca         1 57J      -0.267600
     25 C22          3.4460     0.0910    -0.5040 ca         1 57J       0.185100
     26 O3           2.4660     0.9700    -0.9120 os         1 57J      -0.346100
     27 C23          5.3240    -2.8730    -2.0360 c3         1 57J      -0.055800
     28 C24          6.5020    -2.7460     0.7170 c3         1 57J      -0.039800
     29 H13          1.1530    -0.0630     1.2310 hc         1 57J       0.064200
     30 H12          0.1390     1.3370     1.5370 hc         1 57J       0.064200
     31 H19          3.4460    -0.9240    -2.3980 ha         1 57J       0.128000
     32 H7          -4.0430    -3.4880    -1.5080 h4         1 57J       0.051800
     33 H18          5.4270    -0.7070     2.1640 ha         1 57J       0.131000
     34 H3          -6.6190    -0.1000     2.7400 hc         1 57J       0.044700
     35 H4          -6.5350     1.5780     2.1880 hc         1 57J       0.044700
     36 H2          -7.5850     0.4270     1.3490 hc         1 57J       0.044700
     37 H5          -4.5230     2.1070     0.9640 ha         1 57J       0.127000
     38 H6          -2.5870    -0.8660    -1.5610 ha         1 57J       0.126000
     39 H1          -7.0340    -2.2900     1.0890 hn         1 57J       0.378000
     40 H9           0.4170     1.7210    -2.4640 h1         1 57J       0.064950
     41 H8          -0.6330     3.1040    -2.1620 h1         1 57J       0.064950
     42 H11          1.6490     3.4900    -1.2230 hc         1 57J       0.064200
     43 H10          0.4320     3.4950     0.0470 hc         1 57J       0.064200
     44 H14         -1.1090    -0.3570     0.2900 h1         1 57J       0.064950
     45 H15          0.1060    -0.4080    -0.9950 h1         1 57J       0.064950
     46 H17          2.1760     2.9150     1.8760 hc         1 57J       0.084200
     47 H16          3.3520     2.9810     0.5360 hc         1 57J       0.084200
     48 H21          5.1310    -3.8840    -1.6580 hc         1 57J       0.047700
     49 H20          4.7980    -2.7760    -2.9930 hc         1 57J       0.047700
     50 H22          6.3980    -2.7890    -2.2430 hc         1 57J       0.047700
     51 H23          7.3950    -2.6750     0.0840 hc         1 57J       0.041700
     52 H25          6.8200    -2.5640     1.7510 hc         1 57J       0.041700
     53 H24          6.1330    -3.7770     0.6670 hc         1 57J       0.041700
     54 O2           3.8160     1.2430     2.9070 o          1 57J      -0.522100
     55 C1          -6.6150     0.5380     1.8480 c3         1 57J      -0.042800
@<TRIPOS>BOND
     1     1     6 1   
     2     1    19 1   
     3     1    22 1   
     4     2     6 1   
     5     2    15 ar  
     6     2    16 ar  
     7     3    10 2   
     8     3    17 1   
     9     4     5 ar  
    10     4    14 ar  
    11     4    17 1   
    12     5    10 1   
    13     5    16 ar  
    14     6    18 2   
    15     7    21 1   
    16     7    22 1   
    17     7    29 1   
    18     7    30 1   
    19     8     9 ar  
    20     8    13 ar  
    21     8    27 1   
    22     9    25 ar  
    23     9    31 1   
    24    10    32 1   
    25    11    13 ar  
    26    11    24 ar  
    27    11    33 1   
    28    12    23 1   
    29    12    24 1   
    30    12    54 2   
    31    13    28 1   
    32    14    15 ar  
    33    14    55 1   
    34    15    37 1   
    35    16    38 1   
    36    17    39 1   
    37    19    20 1   
    38    19    40 1   
    39    19    41 1   
    40    20    21 1   
    41    20    42 1   
    42    20    43 1   
    43    21    23 1   
    44    21    26 1   
    45    22    44 1   
    46    22    45 1   
    47    23    46 1   
    48    23    47 1   
    49    24    25 ar  
    50    25    26 1   
    51    27    48 1   
    52    27    49 1   
    53    27    50 1   
    54    28    51 1   
    55    28    52 1   
    56    28    53 1   
    57    34    55 1   
    58    35    55 1   
    59    36    55 1   
@<TRIPOS>SUBSTRUCTURE
     1 57J         1 TEMP              0 ****  ****    0 ROOT
