@<TRIPOS>MOLECULE
57K
   56    59     1     0     0
SMALL
No Charge or Current Charge


@<TRIPOS>ATOM
      1 N3          -1.1790     1.0700    -0.6950 n          1 57K      -0.405800
      2 C4          -3.5710     0.8450     0.0670 ca         1 57K      -0.180600
      3 N2          -6.9760    -2.1430    -1.0360 nc         1 57K      -0.515100
      4 C7          -5.9760    -0.5600     0.2880 ca         1 57K      -0.021200
      5 C6          -5.1520    -0.7750    -0.7680 ca         1 57K      -0.243900
      6 C9          -2.2940     1.6470    -0.0430 c          1 57K       0.618700
      7 C13          0.3620    -0.5890     0.4060 c6         1 57K      -0.088900
      8 C8          -5.8060    -1.7710    -1.5830 cd         1 57K       0.359800
      9 C18          6.7830    -0.7410     0.5750 c3         1 57K       0.225000
     10 C16          2.3890    -0.3170    -1.2490 cy         1 57K       0.126000
     11 C19          7.4840    -1.6140    -0.5000 c3         1 57K      -0.108767
     12 C2          -5.6680     0.3740     1.2880 ca         1 57K      -0.101300
     13 C3          -4.4510     1.0830     1.1590 ca         1 57K      -0.035000
     14 C5          -3.9420    -0.0920    -0.9320 ca         1 57K      -0.005000
     15 N1          -7.0810    -1.3800     0.1430 na         1 57K      -0.061400
     16 O1          -2.2610     2.8080     0.3480 o          1 57K      -0.594100
     17 C10         -0.0200     1.9040    -1.1210 c6         1 57K       0.095000
     18 C11          1.1830     1.7520    -0.1610 c6         1 57K      -0.088900
     19 C12          1.5940     0.2620    -0.0220 cy         1 57K      -0.095000
     20 C14         -0.8380    -0.3760    -0.5500 c6         1 57K       0.095000
     21 C15          2.8880     0.0120     0.8300 cy         1 57K       0.126000
     22 N4           3.2380    -1.0050    -0.2170 nj         1 57K      -0.429800
     23 C17          4.5620    -0.5880    -0.5500 c          1 57K       0.667100
     24 O2           5.0510    -0.2100    -1.6070 o          1 57K      -0.554000
     25 O3           5.3510    -0.9480     0.5240 os         1 57K      -0.475100
     26 H13          0.6170    -1.6570     0.4430 hc         1 57K       0.057450
     27 H12          0.0610    -0.3110     1.4250 hc         1 57K       0.057450
     28 H24          6.6610    -0.6550     2.7590 hc         1 57K       0.049367
     29 H23          6.9280    -2.2890     2.1160 hc         1 57K       0.049367
     30 H25          8.2610    -1.1180     2.1470 hc         1 57K       0.049367
     31 H27          6.9570     1.1300    -0.5880 hc         1 57K       0.049367
     32 H26          6.4610     1.3650     1.1030 hc         1 57K       0.049367
     33 H28          8.1440     0.9690     0.7060 hc         1 57K       0.049367
     34 H7          -5.4880    -2.2210    -2.5150 h4         1 57K       0.051800
     35 H18          1.8210    -1.0110    -1.8780 h1         1 57K       0.055450
     36 H19          2.8540     0.4670    -1.8590 h1         1 57K       0.055450
     37 H21          8.5610    -1.6720    -0.3010 hc         1 57K       0.049367
     38 H22          7.0840    -2.6350    -0.4930 hc         1 57K       0.049367
     39 H20          7.3660    -1.2020    -1.5070 hc         1 57K       0.049367
     40 H2          -6.7640    -0.3010     3.0380 hc         1 57K       0.044700
     41 H3          -6.2060     1.3730     3.1510 hc         1 57K       0.044700
     42 H4          -7.5840     0.9740     2.1160 hc         1 57K       0.044700
     43 H5          -4.1800     1.8180     1.9150 ha         1 57K       0.127000
     44 H6          -3.3220    -0.2700    -1.8090 ha         1 57K       0.126000
     45 H1          -7.8780    -1.4500     0.7750 hn         1 57K       0.377000
     46 H9           0.2810     1.5960    -2.1320 h1         1 57K       0.059950
     47 H8          -0.3090     2.9630    -1.1860 h1         1 57K       0.059950
     48 H11          2.0250     2.3560    -0.5250 hc         1 57K       0.057450
     49 H10          0.9130     2.1570     0.8240 hc         1 57K       0.057450
     50 H14         -1.6870    -0.9480    -0.1550 h1         1 57K       0.059950
     51 H15         -0.5990    -0.7880    -1.5410 h1         1 57K       0.059950
     52 H17          3.5500     0.8870     0.8990 h1         1 57K       0.055450
     53 H16          2.7090    -0.4210     1.8200 h1         1 57K       0.055450
     54 C1          -6.6060     0.6190     2.4620 c3         1 57K      -0.042800
     55 C20          7.1820    -1.2310     1.9850 c3         1 57K      -0.108767
     56 C21          7.0990     0.7720     0.4370 c3         1 57K      -0.108767
@<TRIPOS>BOND
     1     1     6 1   
     2     1    17 1   
     3     1    20 1   
     4     2     6 1   
     5     2    13 ar  
     6     2    14 ar  
     7     3     8 2   
     8     3    15 1   
     9     4     5 ar  
    10     4    12 ar  
    11     4    15 1   
    12     5     8 1   
    13     5    14 ar  
    14     6    16 2   
    15     7    19 1   
    16     7    20 1   
    17     7    26 1   
    18     7    27 1   
    19     8    34 1   
    20     9    11 1   
    21     9    25 1   
    22     9    55 1   
    23     9    56 1   
    24    10    19 1   
    25    10    22 1   
    26    10    35 1   
    27    10    36 1   
    28    11    37 1   
    29    11    38 1   
    30    11    39 1   
    31    12    13 ar  
    32    12    54 1   
    33    13    43 1   
    34    14    44 1   
    35    15    45 1   
    36    17    18 1   
    37    17    46 1   
    38    17    47 1   
    39    18    19 1   
    40    18    48 1   
    41    18    49 1   
    42    19    21 1   
    43    20    50 1   
    44    20    51 1   
    45    21    22 1   
    46    21    52 1   
    47    21    53 1   
    48    22    23 1   
    49    23    24 2   
    50    23    25 1   
    51    28    55 1   
    52    29    55 1   
    53    30    55 1   
    54    31    56 1   
    55    32    56 1   
    56    33    56 1   
    57    40    54 1   
    58    41    54 1   
    59    42    54 1   
@<TRIPOS>SUBSTRUCTURE
     1 57K         1 TEMP              0 ****  ****    0 ROOT
