@<TRIPOS>MOLECULE
57K
   56    59     1     0     0
SMALL
abcg2


@<TRIPOS>ATOM
      1 N3          -1.2520     1.2320    -0.6700 n          1 57K      -0.405800
      2 C4          -3.5560     0.7970    -0.0020 ca         1 57K      -0.180600
      3 N2          -6.9760    -1.9640    -1.2240 nc         1 57K      -0.515100
      4 C7          -5.8730    -0.6660     0.2240 ca         1 57K      -0.021200
      5 C6          -5.1640    -0.6570    -0.9870 ca         1 57K      -0.243900
      6 C9          -2.3770     1.7110    -0.0930 c          1 57K       0.618700
      7 C13          0.2750    -0.4150     0.3110 c6         1 57K      -0.088900
      8 C8          -5.9260    -1.4960    -1.8460 cd         1 57K       0.359800
      9 C18          6.8150    -0.7940     0.5900 c3         1 57K       0.225000
     10 C16          2.3040     0.0850    -1.2030 cy         1 57K       0.126000
     11 C19          7.1340    -2.1960     0.0850 c3         1 57K      -0.108767
     12 C2          -5.4600     0.0580     1.3550 ca         1 57K      -0.101300
     13 C3          -4.3060     0.7910     1.1970 ca         1 57K      -0.035000
     14 C5          -3.9820     0.0810    -1.0990 ca         1 57K      -0.005000
     15 N1          -6.9430    -1.4660     0.0160 na         1 57K      -0.061400
     16 O1          -2.4860     2.8670     0.2950 o          1 57K      -0.594100
     17 C10         -0.1500     2.1350    -0.9610 c6         1 57K       0.095000
     18 C11          0.9990     1.9490     0.0210 c6         1 57K      -0.088900
     19 C12          1.4580     0.5000     0.0360 cy         1 57K      -0.095000
     20 C14         -0.8590    -0.1710    -0.6790 c6         1 57K       0.095000
     21 C15          2.7090     0.2260     0.9050 cy         1 57K       0.126000
     22 N4           3.4100    -0.1490    -0.3060 nj         1 57K      -0.429800
     23 C17          4.6800    -0.4860    -0.5710 c          1 57K       0.667100
     24 O2           5.0810    -0.7040    -1.7020 o          1 57K      -0.554000
     25 O3           5.3800    -0.5520     0.5500 os         1 57K      -0.475100
     26 H13          0.5810    -1.4620     0.2500 hc         1 57K       0.057450
     27 H12         -0.0900    -0.2420     1.3280 hc         1 57K       0.057450
     28 H24          6.9240     0.3050     2.4560 hc         1 57K       0.049367
     29 H23          6.5740    -1.4210     2.6530 hc         1 57K       0.049367
     30 H25          8.2040    -0.8870     2.2290 hc         1 57K       0.049367
     31 H27          7.4200     0.1830    -1.2660 hc         1 57K       0.049367
     32 H26          7.2760     1.2720     0.1250 hc         1 57K       0.049367
     33 H28          8.6400     0.1680     0.0030 hc         1 57K       0.049367
     34 H7          -5.7280    -1.7590    -2.8740 h4         1 57K       0.051800
     35 H18          1.9540    -0.8070    -1.7310 h1         1 57K       0.055450
     36 H19          2.4790     0.8760    -1.9390 h1         1 57K       0.055450
     37 H21          8.1920    -2.3980     0.2550 hc         1 57K       0.049367
     38 H22          6.5620    -2.9490     0.6310 hc         1 57K       0.049367
     39 H20          6.9370    -2.3110    -0.9790 hc         1 57K       0.049367
     40 H2          -6.3120    -0.9840     3.0340 hc         1 57K       0.044700
     41 H3          -5.7790     0.6520     3.3920 hc         1 57K       0.044700
     42 H4          -7.2610     0.3920     2.4830 hc         1 57K       0.044700
     43 H5          -3.9470     1.3830     2.0300 ha         1 57K       0.127000
     44 H6          -3.4270     0.0960    -2.0280 ha         1 57K       0.126000
     45 H1          -7.6730    -1.7170     0.6590 hn         1 57K       0.377000
     46 H9           0.1940     1.9210    -1.9790 h1         1 57K       0.059950
     47 H8          -0.5100     3.1600    -0.9550 h1         1 57K       0.059950
     48 H11          1.8220     2.6130    -0.2550 hc         1 57K       0.057450
     49 H10          0.6720     2.2390     1.0240 hc         1 57K       0.057450
     50 H14         -1.7020    -0.8050    -0.4270 h1         1 57K       0.059950
     51 H15         -0.5480    -0.4450    -1.6920 h1         1 57K       0.059950
     52 H17          3.1220     1.1010     1.4140 h1         1 57K       0.055450
     53 H16          2.6000    -0.5800     1.6330 h1         1 57K       0.055450
     54 C1          -6.2420     0.0280     2.6300 c3         1 57K      -0.042800
     55 C20          7.1430    -0.6920     2.0730 c3         1 57K      -0.108767
     56 C21          7.5720     0.2710    -0.1920 c3         1 57K      -0.108767
@<TRIPOS>BOND
     1     1     6 1   
     2     1    17 1   
     3     1    20 1   
     4     2     6 1   
     5     2    13 ar  
     6     2    14 ar  
     7     3     8 2   
     8     3    15 1   
     9     4     5 ar  
    10     4    12 ar  
    11     4    15 1   
    12     5     8 1   
    13     5    14 ar  
    14     6    16 2   
    15     7    19 1   
    16     7    20 1   
    17     7    26 1   
    18     7    27 1   
    19     8    34 1   
    20     9    11 1   
    21     9    25 1   
    22     9    55 1   
    23     9    56 1   
    24    10    19 1   
    25    10    22 1   
    26    10    35 1   
    27    10    36 1   
    28    11    37 1   
    29    11    38 1   
    30    11    39 1   
    31    12    13 ar  
    32    12    54 1   
    33    13    43 1   
    34    14    44 1   
    35    15    45 1   
    36    17    18 1   
    37    17    46 1   
    38    17    47 1   
    39    18    19 1   
    40    18    48 1   
    41    18    49 1   
    42    19    21 1   
    43    20    50 1   
    44    20    51 1   
    45    21    22 1   
    46    21    52 1   
    47    21    53 1   
    48    22    23 1   
    49    23    24 2   
    50    23    25 1   
    51    28    55 1   
    52    29    55 1   
    53    30    55 1   
    54    31    56 1   
    55    32    56 1   
    56    33    56 1   
    57    40    54 1   
    58    41    54 1   
    59    42    54 1   
@<TRIPOS>SUBSTRUCTURE
     1 57K         1 TEMP              0 ****  ****    0 ROOT
