@<TRIPOS>MOLECULE
57L
   65    68     1     0     0
SMALL
abcg2


@<TRIPOS>ATOM
      1 N3           1.9060    -1.4640    -1.1480 n          1 57L      -0.402800
      2 C4           3.8660    -0.3540    -0.2020 ca         1 57L      -0.176600
      3 N2           6.1200     3.5980    -0.5380 nc         1 57L      -0.516100
      4 C7           5.4470     1.7660     0.5470 ca         1 57L      -0.024200
      5 C6           4.9020     1.7200    -0.7460 ca         1 57L      -0.241900
      6 C9           3.1180    -1.5960    -0.5680 c          1 57L       0.617700
      7 C13          0.0270    -2.9850    -0.6960 c6         1 57L      -0.090900
      8 C20         -5.9240     0.7370     1.0600 c3         1 57L       0.188600
      9 C21         -6.4930     1.9400     0.3150 c3         1 57L      -0.052000
     10 C8           5.3750     2.9090    -1.3650 cd         1 57L       0.358800
     11 C18         -2.5950    -3.5020     0.5060 c3         1 57L      -0.107100
     12 C16         -2.9440    -0.7100    -1.3310 c5         1 57L       0.118000
     13 C19         -4.0370    -0.6890     0.9000 c          1 57L       0.648100
     14 C2           5.2310     0.7600     1.5040 ca         1 57L      -0.101300
     15 C3           4.4490    -0.2920     1.0870 ca         1 57L      -0.036000
     16 C5           4.0920     0.6440    -1.1260 ca         1 57L      -0.007000
     17 N1           6.1610     2.9120     0.6070 na         1 57L      -0.060400
     18 O1           3.6460    -2.6850    -0.3690 o          1 57L      -0.597100
     19 C10          1.0520    -0.2910    -1.0370 c6         1 57L       0.095000
     20 C11         -0.1360    -0.5750    -0.1240 c6         1 57L      -0.090900
     21 C12         -0.9400    -1.8140    -0.5470 c5         1 57L      -0.057000
     22 C14          1.1930    -2.6430    -1.6150 c6         1 57L       0.095000
     23 C15         -1.7500    -1.5240    -1.8200 c5         1 57L      -0.091400
     24 N4          -3.0870    -1.1270     0.0590 n          1 57L      -0.415800
     25 C17         -2.0610    -2.0750     0.4820 c5         1 57L       0.136700
     26 O2          -4.1560    -1.0430     2.0600 o          1 57L      -0.551000
     27 O3          -4.8420     0.1950     0.3070 os         1 57L      -0.462100
     28 C22         -6.9800     1.5370    -1.0780 c3         1 57L      -0.083100
     29 C23         -7.6770     2.4500     1.1390 c3         1 57L      -0.083100
     30 C24         -5.4390     3.0420     0.2050 c3         1 57L      -0.083100
     31 H12          0.4230    -3.2650     0.2860 hc         1 57L       0.056200
     32 H13         -0.4860    -3.8620    -1.0960 hc         1 57L       0.056200
     33 H25         -5.5820     1.0420     2.0520 h1         1 57L       0.050200
     34 H24         -6.6970    -0.0280     1.1890 h1         1 57L       0.050200
     35 H7           5.1900     3.2640    -2.3670 h4         1 57L       0.050800
     36 H21         -1.8350    -4.1980     0.8600 hc         1 57L       0.045700
     37 H22         -3.4440    -3.5710     1.1860 hc         1 57L       0.045700
     38 H23         -2.9260    -3.8300    -0.4800 hc         1 57L       0.045700
     39 H18         -2.7520     0.3630    -1.4000 h1         1 57L       0.049200
     40 H19         -3.8430    -0.9180    -1.9120 h1         1 57L       0.049200
     41 H3           5.5410     1.7650     3.3790 hc         1 57L       0.044700
     42 H4           5.5120     0.0060     3.4910 hc         1 57L       0.044700
     43 H2           6.9230     0.8290     2.8290 hc         1 57L       0.044700
     44 H5           4.2620    -1.1020     1.7820 ha         1 57L       0.127000
     45 H6           3.6670     0.5960    -2.1210 ha         1 57L       0.125000
     46 H1           6.6990     3.2690     1.3790 hn         1 57L       0.378000
     47 H8           1.6110     0.5490    -0.6380 h1         1 57L       0.058200
     48 H9           0.7160    -0.0030    -2.0370 h1         1 57L       0.058200
     49 H11          0.2370    -0.7210     0.8950 hc         1 57L       0.056200
     50 H10         -0.7690     0.3170    -0.0950 hc         1 57L       0.056200
     51 H14          0.8320    -2.4430    -2.6280 h1         1 57L       0.058200
     52 H15          1.8830    -3.4790    -1.6820 h1         1 57L       0.058200
     53 H16         -2.0830    -2.4610    -2.2740 hc         1 57L       0.053700
     54 H17         -1.1910    -0.9830    -2.5830 hc         1 57L       0.053700
     55 H20         -1.7130    -1.8160     1.4850 h1         1 57L       0.074700
     56 H28         -7.7290     0.7440    -1.0200 hc         1 57L       0.036589
     57 H27         -7.4380     2.3880    -1.5840 hc         1 57L       0.036589
     58 H26         -6.1630     1.1820    -1.7080 hc         1 57L       0.036589
     59 H29         -7.3720     2.7230     2.1520 hc         1 57L       0.036589
     60 H30         -8.1140     3.3360     0.6760 hc         1 57L       0.036589
     61 H31         -8.4650     1.6970     1.2190 hc         1 57L       0.036589
     62 H32         -4.5730     2.7220    -0.3760 hc         1 57L       0.036589
     63 H34         -5.8550     3.9240    -0.2860 hc         1 57L       0.036589
     64 H33         -5.0850     3.3500     1.1920 hc         1 57L       0.036589
     65 C1           5.8320     0.8430     2.8720 c3         1 57L      -0.042800
@<TRIPOS>BOND
     1     1     6 1   
     2     1    19 1   
     3     1    22 1   
     4     2     6 1   
     5     2    15 ar  
     6     2    16 ar  
     7     3    10 2   
     8     3    17 1   
     9     4     5 ar  
    10     4    14 ar  
    11     4    17 1   
    12     5    10 1   
    13     5    16 ar  
    14     6    18 2   
    15     7    21 1   
    16     7    22 1   
    17     7    31 1   
    18     7    32 1   
    19     8     9 1   
    20     8    27 1   
    21     8    33 1   
    22     8    34 1   
    23     9    28 1   
    24     9    29 1   
    25     9    30 1   
    26    10    35 1   
    27    11    25 1   
    28    11    36 1   
    29    11    37 1   
    30    11    38 1   
    31    12    23 1   
    32    12    24 1   
    33    12    39 1   
    34    12    40 1   
    35    13    24 1   
    36    13    26 2   
    37    13    27 1   
    38    14    15 ar  
    39    14    65 1   
    40    15    44 1   
    41    16    45 1   
    42    17    46 1   
    43    19    20 1   
    44    19    47 1   
    45    19    48 1   
    46    20    21 1   
    47    20    49 1   
    48    20    50 1   
    49    21    23 1   
    50    21    25 1   
    51    22    51 1   
    52    22    52 1   
    53    23    53 1   
    54    23    54 1   
    55    24    25 1   
    56    25    55 1   
    57    28    56 1   
    58    28    57 1   
    59    28    58 1   
    60    29    59 1   
    61    29    60 1   
    62    29    61 1   
    63    30    62 1   
    64    30    63 1   
    65    30    64 1   
    66    41    65 1   
    67    42    65 1   
    68    43    65 1   
@<TRIPOS>SUBSTRUCTURE
     1 57L         1 TEMP              0 ****  ****    0 ROOT
