@<TRIPOS>MOLECULE
57L
   65    68     1     0     0
SMALL
No Charge or Current Charge


@<TRIPOS>ATOM
      1 N3           1.9560    -1.4500    -0.9560 n          1 57L      -0.402800
      2 C4           4.0230    -0.3760     0.0080 ca         1 57L      -0.176600
      3 N2           5.9540     3.8300    -0.5560 nc         1 57L      -0.516100
      4 C7           5.6440     1.8380     0.5360 ca         1 57L      -0.024200
      5 C6           4.8350     1.8260    -0.5520 ca         1 57L      -0.241900
      6 C9           3.1840    -1.6030    -0.2690 c          1 57L       0.617700
      7 C13          0.0310    -3.0450    -0.6770 c6         1 57L      -0.090900
      8 C20         -5.9840     0.8640     1.0640 c3         1 57L       0.188600
      9 C21         -6.6560     1.9900     0.2200 c3         1 57L      -0.052000
     10 C8           5.0520     3.0860    -1.2200 cd         1 57L       0.358800
     11 C18         -2.8410    -3.6640     0.2000 c3         1 57L      -0.107100
     12 C16         -2.9120    -0.6180    -1.3040 c5         1 57L       0.118000
     13 C19         -4.2000    -0.7370     0.8760 c          1 57L       0.648100
     14 C2           5.7120     0.7500     1.4190 ca         1 57L      -0.101300
     15 C3           4.8910    -0.3670     1.1350 ca         1 57L      -0.036000
     16 C5           4.0110     0.7390    -0.8680 ca         1 57L      -0.007000
     17 N1           6.3250     3.0420     0.5510 na         1 57L      -0.060400
     18 O1           3.6080    -2.7170     0.0180 o          1 57L      -0.597100
     19 C10          1.0540    -0.2930    -0.7060 c6         1 57L       0.095000
     20 C11         -0.1780    -0.7010     0.1400 c6         1 57L      -0.090900
     21 C12         -0.9970    -1.8850    -0.4830 c5         1 57L      -0.057000
     22 C14          1.2450    -2.6180    -1.5370 c6         1 57L       0.095000
     23 C15         -1.7380    -1.4980    -1.8090 c5         1 57L      -0.091400
     24 N4          -3.1940    -1.2090     0.0220 n          1 57L      -0.415800
     25 C17         -2.2310    -2.2560     0.4260 c5         1 57L       0.136700
     26 O2          -4.3970    -1.1760     2.0000 o          1 57L      -0.551000
     27 O3          -4.9180     0.2730     0.3000 os         1 57L      -0.462100
     28 C22         -7.2510     1.4040    -1.0890 c3         1 57L      -0.083100
     29 C23         -7.8020     2.6180     1.0560 c3         1 57L      -0.083100
     30 C24         -5.6220     3.0960    -0.1280 c3         1 57L      -0.083100
     31 H12          0.3860    -3.3970     0.3010 hc         1 57L       0.056200
     32 H13         -0.4490    -3.9060    -1.1600 hc         1 57L       0.056200
     33 H25         -5.5950     1.2910     1.9980 h1         1 57L       0.050200
     34 H24         -6.7340     0.1050     1.3250 h1         1 57L       0.050200
     35 H7           4.6060     3.4770    -2.1260 h4         1 57L       0.050800
     36 H21         -2.1410    -4.4520     0.4990 hc         1 57L       0.045700
     37 H22         -3.7460    -3.7930     0.8060 hc         1 57L       0.045700
     38 H23         -3.1200    -3.8340    -0.8450 hc         1 57L       0.045700
     39 H18         -2.6150     0.4340    -1.2050 h1         1 57L       0.049200
     40 H19         -3.7800    -0.6710    -1.9750 h1         1 57L       0.049200
     41 H3           6.3880     1.5990     3.3000 hc         1 57L       0.044700
     42 H4           6.5550    -0.1600     3.2130 hc         1 57L       0.044700
     43 H2           7.6810     0.8760     2.3260 hc         1 57L       0.044700
     44 H5           4.9190    -1.2310     1.7970 ha         1 57L       0.127000
     45 H6           3.3980     0.7550    -1.7670 ha         1 57L       0.125000
     46 H1           7.0060     3.3510     1.2430 hn         1 57L       0.378000
     47 H8           1.5780     0.5060    -0.1650 h1         1 57L       0.058200
     48 H9           0.7290     0.1270    -1.6680 h1         1 57L       0.058200
     49 H11          0.1690    -0.9910     1.1420 hc         1 57L       0.056200
     50 H10         -0.8120     0.1810     0.2960 hc         1 57L       0.056200
     51 H14          0.9040    -2.3560    -2.5490 h1         1 57L       0.058200
     52 H15          1.9310    -3.4700    -1.6490 h1         1 57L       0.058200
     53 H16         -2.1150    -2.3820    -2.3340 hc         1 57L       0.053700
     54 H17         -1.1070    -0.9610    -2.5250 hc         1 57L       0.053700
     55 H20         -1.9680    -2.1670     1.4900 h1         1 57L       0.074700
     56 H28         -7.9720     0.6060    -0.8690 hc         1 57L       0.036589
     57 H27         -7.7700     2.1800    -1.6650 hc         1 57L       0.036589
     58 H26         -6.4660     0.9830    -1.7300 hc         1 57L       0.036589
     59 H29         -7.4170     3.0480     1.9890 hc         1 57L       0.036589
     60 H30         -8.3030     3.4180     0.4970 hc         1 57L       0.036589
     61 H31         -8.5560     1.8650     1.3170 hc         1 57L       0.036589
     62 H32         -4.8120     2.7010    -0.7540 hc         1 57L       0.036589
     63 H34         -6.0980     3.9170    -0.6780 hc         1 57L       0.036589
     64 H33         -5.1740     3.5130     0.7820 hc         1 57L       0.036589
     65 C1           6.6340     0.7660     2.6310 c3         1 57L      -0.042800
@<TRIPOS>BOND
     1     1     6 1   
     2     1    19 1   
     3     1    22 1   
     4     2     6 1   
     5     2    15 ar  
     6     2    16 ar  
     7     3    10 2   
     8     3    17 1   
     9     4     5 ar  
    10     4    14 ar  
    11     4    17 1   
    12     5    10 1   
    13     5    16 ar  
    14     6    18 2   
    15     7    21 1   
    16     7    22 1   
    17     7    31 1   
    18     7    32 1   
    19     8     9 1   
    20     8    27 1   
    21     8    33 1   
    22     8    34 1   
    23     9    28 1   
    24     9    29 1   
    25     9    30 1   
    26    10    35 1   
    27    11    25 1   
    28    11    36 1   
    29    11    37 1   
    30    11    38 1   
    31    12    23 1   
    32    12    24 1   
    33    12    39 1   
    34    12    40 1   
    35    13    24 1   
    36    13    26 2   
    37    13    27 1   
    38    14    15 ar  
    39    14    65 1   
    40    15    44 1   
    41    16    45 1   
    42    17    46 1   
    43    19    20 1   
    44    19    47 1   
    45    19    48 1   
    46    20    21 1   
    47    20    49 1   
    48    20    50 1   
    49    21    23 1   
    50    21    25 1   
    51    22    51 1   
    52    22    52 1   
    53    23    53 1   
    54    23    54 1   
    55    24    25 1   
    56    25    55 1   
    57    28    56 1   
    58    28    57 1   
    59    28    58 1   
    60    29    59 1   
    61    29    60 1   
    62    29    61 1   
    63    30    62 1   
    64    30    63 1   
    65    30    64 1   
    66    41    65 1   
    67    42    65 1   
    68    43    65 1   
@<TRIPOS>SUBSTRUCTURE
     1 57L         1 TEMP              0 ****  ****    0 ROOT
