@<TRIPOS>MOLECULE
57M
  123   126     1     0     0
SMALL
No Charge or Current Charge


@<TRIPOS>ATOM
      1 C10          0.6300     0.2930     0.8830 c3         1 57M      -0.096400
      2 N12          3.0330    -0.1790     1.2110 n7         1 57M      -0.804400
      3 C13          4.1700    -0.8460     1.9640 c3         1 57M       0.032500
      4 C21          7.2960     1.8180    -0.6370 c5         1 57M       0.077300
      5 C22          8.4750     2.7400    -0.2360 c5         1 57M       0.136300
      6 C01         -1.8270     3.3250    -2.0120 c3         1 57M      -0.086600
      7 C03         -1.9700     5.3590    -0.4930 c3         1 57M      -0.086600
      8 C04         -3.5920     3.4240    -0.1250 c3         1 57M      -0.084400
      9 C05         -3.9080     1.9030    -0.0680 c3         1 57M       0.036700
     10 C06         -3.0430     1.1330     0.9780 c          1 57M       0.600100
     11 O07         -3.4620     0.8330     2.0930 o          1 57M      -0.648100
     12 N08         -1.7820     0.7690     0.5590 ns         1 57M      -0.481900
     13 C09         -0.8050     0.0630     1.3880 c3         1 57M       0.094000
     14 C11          1.6820    -0.4350     1.7410 c3         1 57M       0.167800
     15 C14          5.5190    -0.8110     1.1810 c3         1 57M       0.194300
     16 O15          5.8380     0.5580     0.8340 os         1 57M      -0.436000
     17 C16          7.2300     0.8670     0.6060 c5         1 57M       0.375300
     18 O17          7.7630     1.5920     1.7360 os         1 57M      -0.388000
     19 C18          8.1710     2.9150     1.2920 c5         1 57M       0.168300
     20 C19          7.0480     3.9620     1.5940 c3         1 57M       0.137800
     21 N20          6.8890     4.2610     3.0400 n8         1 57M      -0.945200
     22 O23          9.7210     2.0880    -0.5080 oh         1 57M      -0.719000
     23 O24          7.5260     1.1240    -1.8820 oh         1 57M      -0.749000
     24 C25          5.5200    -1.7300    -0.0980 c5         1 57M       0.144300
     25 O26          6.3170    -1.2190    -1.1970 os         1 57M      -0.475000
     26 C27          6.4620    -2.3060    -2.1350 c5         1 57M       0.311700
     27 N28          7.8160    -2.3750    -2.7510 n          1 57M      -0.325000
     28 C29          8.9790    -2.1270    -1.9810 c          1 57M       0.615000
     29 N30         10.1590    -2.1620    -2.6580 ns         1 57M      -0.470500
     30 C31         10.3720    -2.4130    -3.9730 c          1 57M       0.594200
     31 O32         11.4850    -2.4180    -4.4670 o          1 57M      -0.541000
     32 O33          8.9790    -1.9170    -0.7810 o          1 57M      -0.525000
     33 C34          7.9060    -2.6550    -4.1170 cc         1 57M       0.015600
     34 C35          9.1410    -2.6760    -4.7190 cd         1 57M      -0.390200
     35 C36          6.1200    -3.1520     0.1130 c5         1 57M       0.158300
     36 C37          6.1930    -3.6580    -1.3620 c5         1 57M       0.094300
     37 O38          4.9350    -4.2710    -1.7300 oh         1 57M      -0.685000
     38 O39          5.2940    -4.0280     0.8830 oh         1 57M      -0.684000
     39 C40          4.4260    -0.3620     3.4460 c          1 57M       0.733000
     40 O41          4.9350    -1.1650     4.2190 o          1 57M      -0.711000
     41 O42          4.0330     0.7410     3.8110 o          1 57M      -0.711000
     42 N43         -5.3330     1.7250     0.2770 ns         1 57M      -0.492900
     43 C44         -6.1060     0.6570    -0.1290 c          1 57M       0.581100
     44 O45         -5.7320    -0.1150    -1.0040 o          1 57M      -0.612100
     45 C46         -7.4490     0.5010     0.6280 c3         1 57M       0.052700
     46 N47         -8.4350    -0.1870    -0.2470 ns         1 57M      -0.534900
     47 C48         -9.7640     0.1260    -0.3240 c          1 57M       0.646100
     48 O49        -10.2820     1.0160     0.3280 o          1 57M      -0.684100
     49 N50        -10.4400    -0.6720    -1.2070 ns         1 57M      -0.474900
     50 C51        -11.8860    -0.5700    -1.5330 c3         1 57M      -0.031300
     51 C52        -12.1630     0.3120    -2.7900 c3         1 57M      -0.052700
     52 C53        -11.8610     1.8090    -2.5420 c3         1 57M      -0.077600
     53 C54        -11.4440    -0.1940    -4.0650 c3         1 57M      -0.077600
     54 C55        -12.5320    -1.9900    -1.6620 c          1 57M       0.710000
     55 O56        -11.8300    -2.9310    -2.0100 o          1 57M      -0.727500
     56 O57        -13.6940    -2.1250    -1.3020 o          1 57M      -0.727500
     57 C58         -7.2410    -0.2510     1.9910 c6         1 57M       0.222500
     58 N59         -6.2110     0.3800     2.8350 nu         1 57M      -0.956400
     59 C60         -6.1420     0.1960     4.1560 c2         1 57M       0.809100
     60 N61         -7.0000    -0.4140     4.8570 n2         1 57M      -0.760900
     61 N62         -5.0030     0.7090     4.5680 nv         1 57M      -1.020200
     62 C63         -8.5270    -0.3350     2.8430 c6         1 57M      -0.112400
     63 C64         -8.2160    -0.9670     4.2190 c6         1 57M       0.141800
     64 H1           0.7060    -0.0520    -0.1560 hc         1 57M       0.043200
     65 H2           0.8430     1.3690     0.8850 hc         1 57M       0.043200
     66 H3           3.0530    -0.4900     0.2360 hn         1 57M       0.364000
     67 H5           3.9080    -1.9080     2.0570 h1         1 57M       0.005700
     68 H6           6.3670     2.4020    -0.7080 h1         1 57M       0.059700
     69 H7           8.4280     3.7010    -0.7670 h1         1 57M       0.040700
     70 H8          -1.8450     2.2320    -2.0690 hc         1 57M       0.031867
     71 H9          -2.5450     3.7190    -2.7420 hc         1 57M       0.031867
     72 H10         -0.8230     3.6540    -2.3100 hc         1 57M       0.031867
     73 H11         -1.4350     3.3840     0.1060 hc         1 57M       0.069700
     74 H12         -2.6610     5.8820    -1.1650 hc         1 57M       0.031867
     75 H13         -2.1520     5.7120     0.5300 hc         1 57M       0.031867
     76 H14         -0.9460     5.6390    -0.7670 hc         1 57M       0.031867
     77 H17         -3.7260     1.4560    -1.0530 h1         1 57M       0.070700
     78 H18         -1.5180     1.0300    -0.3820 hn         1 57M       0.312500
     79 H19         -1.0390    -1.0100     1.3720 h1         1 57M       0.055200
     80 H20         -0.8870     0.4190     2.4240 h1         1 57M       0.055200
     81 H21          1.6000    -0.0860     2.7800 h1         1 57M       0.034700
     82 H22          1.4660    -1.5130     1.7320 h1         1 57M       0.034700
     83 H23          6.2910    -1.2040     1.8590 h1         1 57M       0.086700
     84 H24          7.8230    -0.0410     0.4420 h2         1 57M       0.055700
     85 H25          9.0770     3.2150     1.8350 h1         1 57M       0.071700
     86 H26          7.2890     4.9020     1.0790 h1         1 57M       0.020700
     87 H27          6.0850     3.6000     1.2090 h1         1 57M       0.020700
     88 H28          7.7440     4.7050     3.3930 hn         1 57M       0.379500
     89 H29          6.1700     4.9850     3.1570 hn         1 57M       0.379500
     90 H31          9.5070     1.5150    -1.2860 ho         1 57M       0.517000
     91 H32          7.0280     0.2630    -1.7970 ho         1 57M       0.538000
     92 H33          4.4840    -1.8130    -0.4550 h1         1 57M       0.080700
     93 H34          5.7390    -2.1820    -2.9500 h2         1 57M       0.056700
     94 H35         10.9830    -1.9870    -2.1060 hn         1 57M       0.344500
     95 H36          6.9520    -2.8350    -4.6070 h4         1 57M       0.201000
     96 H37          9.2730    -2.8830    -5.7750 ha         1 57M       0.216000
     97 H38          7.1240    -3.0800     0.5550 h1         1 57M       0.086700
     98 H39          7.0190    -4.3730    -1.4880 h1         1 57M       0.055700
     99 H40          5.0530    -4.6930    -2.6140 ho         1 57M       0.491000
    100 H41          4.7570    -4.4820     0.1850 ho         1 57M       0.509000
    101 H43         -5.7280     2.3200     0.9980 hn         1 57M       0.329500
    102 H44         -7.8130     1.5130     0.8470 h1         1 57M       0.096700
    103 H45         -8.0930    -0.9170    -0.8600 hn         1 57M       0.326500
    104 H46         -9.9150    -1.4110    -1.6550 hn         1 57M       0.327500
    105 H47        -12.3890    -0.0990    -0.6780 h1         1 57M       0.060700
    106 H48        -13.2400     0.2470    -2.9870 hc         1 57M       0.059700
    107 H49        -12.3910     2.1690    -1.6520 hc         1 57M       0.020700
    108 H50        -10.7870     1.9770    -2.3970 hc         1 57M       0.020700
    109 H51        -12.1860     2.4140    -3.3960 hc         1 57M       0.020700
    110 H52        -11.7220    -1.2310    -4.2890 hc         1 57M       0.020700
    111 H53        -11.7220     0.4180    -4.9310 hc         1 57M       0.020700
    112 H54        -10.3540    -0.1450    -3.9520 hc         1 57M       0.020700
    113 H56         -6.9240    -1.2790     1.7580 h1         1 57M       0.045700
    114 H57         -5.3020     0.5740     2.4210 hn         1 57M       0.499000
    115 H58         -4.2780     0.7030     3.8610 hn         1 57M       0.460000
    116 H59         -4.7290     0.3390     5.4660 hn         1 57M       0.460000
    117 H60         -8.9400     0.6720     2.9900 hc         1 57M       0.068200
    118 H61         -9.2990    -0.9240     2.3320 hc         1 57M       0.068200
    119 H62         -8.0830    -2.0530     4.1040 h1         1 57M       0.039200
    120 H63         -9.0750    -0.8090     4.8880 h1         1 57M       0.039200
    121 H15         -3.7720     3.8500     0.8710 hc         1 57M       0.052200
    122 C02         -2.1620     3.8280    -0.5860 c3         1 57M      -0.062700
    123 H16         -4.3170     3.9020    -0.7970 hc         1 57M       0.052200
@<TRIPOS>BOND
     1     1    13 1   
     2     1    14 1   
     3     1    64 1   
     4     1    65 1   
     5     2     3 1   
     6     2    14 1   
     7     2    66 1   
     8     3    15 1   
     9     3    39 1   
    10     3    67 1   
    11     4     5 1   
    12     4    17 1   
    13     4    23 1   
    14     4    68 1   
    15     5    19 1   
    16     5    22 1   
    17     5    69 1   
    18     6    70 1   
    19     6    71 1   
    20     6    72 1   
    21     6   122 1   
    22     7    74 1   
    23     7    75 1   
    24     7    76 1   
    25     7   122 1   
    26     8     9 1   
    27     8   121 1   
    28     8   122 1   
    29     8   123 1   
    30     9    10 1   
    31     9    42 1   
    32     9    77 1   
    33    10    11 2   
    34    10    12 1   
    35    12    13 1   
    36    12    78 1   
    37    13    79 1   
    38    13    80 1   
    39    14    81 1   
    40    14    82 1   
    41    15    16 1   
    42    15    24 1   
    43    15    83 1   
    44    16    17 1   
    45    17    18 1   
    46    17    84 1   
    47    18    19 1   
    48    19    20 1   
    49    19    85 1   
    50    20    21 1   
    51    20    86 1   
    52    20    87 1   
    53    21    88 1   
    54    21    89 1   
    55    22    90 1   
    56    23    91 1   
    57    24    25 1   
    58    24    35 1   
    59    24    92 1   
    60    25    26 1   
    61    26    27 1   
    62    26    36 1   
    63    26    93 1   
    64    27    28 1   
    65    27    33 1   
    66    28    29 1   
    67    28    32 2   
    68    29    30 1   
    69    29    94 1   
    70    30    31 2   
    71    30    34 1   
    72    33    34 2   
    73    33    95 1   
    74    34    96 1   
    75    35    36 1   
    76    35    38 1   
    77    35    97 1   
    78    36    37 1   
    79    36    98 1   
    80    37    99 1   
    81    38   100 1   
    82    39    40 1   
    83    39    41 1   
    84    42    43 1   
    85    42   101 1   
    86    43    44 2   
    87    43    45 1   
    88    45    46 1   
    89    45    57 1   
    90    45   102 1   
    91    46    47 1   
    92    46   103 1   
    93    47    48 2   
    94    47    49 1   
    95    49    50 1   
    96    49   104 1   
    97    50    51 1   
    98    50    54 1   
    99    50   105 1   
   100    51    52 1   
   101    51    53 1   
   102    51   106 1   
   103    52   107 1   
   104    52   108 1   
   105    52   109 1   
   106    53   110 1   
   107    53   111 1   
   108    53   112 1   
   109    54    55 1   
   110    54    56 1   
   111    57    58 1   
   112    57    62 1   
   113    57   113 1   
   114    58    59 1   
   115    58   114 1   
   116    59    60 2   
   117    59    61 1   
   118    60    63 1   
   119    61   115 1   
   120    61   116 1   
   121    62    63 1   
   122    62   117 1   
   123    62   118 1   
   124    63   119 1   
   125    63   120 1   
   126    73   122 1   
@<TRIPOS>SUBSTRUCTURE
     1 57M         1 TEMP              0 ****  ****    0 ROOT
