@<TRIPOS>MOLECULE
57M
  123   126     1     0     0
SMALL
bcc


@<TRIPOS>ATOM
      1 C10          0.4510     0.5440     0.4590 c3         1 57M      -0.096400
      2 N12          2.8700     0.1800     0.5300 n7         1 57M      -0.749200
      3 C13          3.9920    -0.5180     1.1290 c3         1 57M       0.032500
      4 C21          7.6460     1.7750    -0.9850 c5         1 57M       0.054100
      5 C22          8.7330     2.6050    -0.3240 c5         1 57M       0.113100
      6 C01         -1.9940     4.0800    -1.0780 c3         1 57M      -0.086600
      7 C03         -2.2360     5.5630     0.9260 c3         1 57M      -0.086600
      8 C04         -3.7470     3.5960     0.6940 c3         1 57M      -0.084400
      9 C05         -4.0100     2.1420     0.2840 c3         1 57M       0.036700
     10 C06         -3.0780     1.2020     1.0520 c          1 57M       0.667100
     11 O07         -3.3210     0.8810     2.2110 o          1 57M      -0.648100
     12 N08         -1.9790     0.8290     0.3960 ns         1 57M      -0.548900
     13 C09         -0.8960     0.0650     0.9780 c3         1 57M       0.094000
     14 C11          1.5980    -0.2220     1.0980 c3         1 57M       0.167800
     15 C14          5.2220    -0.5310     0.2250 c3         1 57M       0.171100
     16 O15          5.6640     0.7930    -0.0120 os         1 57M      -0.389600
     17 C16          7.0020     1.0850     0.2210 c5         1 57M       0.328900
     18 O17          7.1140     2.0030     1.2760 os         1 57M      -0.341600
     19 C18          8.0130     3.0590     0.9430 c5         1 57M       0.145100
     20 C19          7.2820     4.3820     0.7650 c3         1 57M       0.137800
     21 N20          6.6390     4.7910     2.0010 n8         1 57M      -0.834800
     22 O23          9.8340     1.8030     0.0340 oh         1 57M      -0.596800
     23 O24          8.1800     0.9040    -1.9410 oh         1 57M      -0.626800
     24 C25          5.0080    -1.2250    -1.1170 c5         1 57M       0.121100
     25 O26          6.2570    -1.2430    -1.8030 os         1 57M      -0.428600
     26 C27          6.4310    -2.4140    -2.5480 c5         1 57M       0.288500
     27 N28          7.7930    -2.8910    -2.3610 n          1 57M      -0.392000
     28 C29          8.2060    -3.3010    -1.1070 c          1 57M       0.824500
     29 N30          9.5280    -3.6440    -1.0230 ns         1 57M      -0.604500
     30 C31         10.4820    -3.6330    -2.0310 c          1 57M       0.736700
     31 O32         11.6280    -3.9700    -1.8020 o          1 57M      -0.616500
     32 O33          7.4590    -3.3570    -0.1550 o          1 57M      -0.600500
     33 C34          8.6750    -2.8390    -3.4060 cc         1 57M       0.065600
     34 C35          9.9650    -3.1900    -3.3030 cd         1 57M      -0.340200
     35 C36          4.5800    -2.6880    -1.0000 c5         1 57M       0.135100
     36 C37          5.2890    -3.3870    -2.1800 c5         1 57M       0.071100
     37 O38          4.3860    -3.5060    -3.2450 oh         1 57M      -0.562800
     38 O39          3.1860    -2.7620    -1.0390 oh         1 57M      -0.561800
     39 C40          4.4070     0.0570     2.5120 c          1 57M       0.943600
     40 O41          5.3570    -0.5420     3.0600 o          1 57M      -0.816300
     41 O42          3.7680     1.0150     2.9720 o          1 57M      -0.816300
     42 N43         -5.3820     1.8210     0.5950 ns         1 57M      -0.559900
     43 C44         -5.8970     0.6110     0.3400 c          1 57M       0.648100
     44 O45         -5.2950    -0.2420    -0.2970 o          1 57M      -0.612100
     45 C46         -7.2590     0.3260     0.9600 c3         1 57M       0.052700
     46 N47         -8.0690    -0.3810     0.0110 ns         1 57M      -0.601900
     47 C48         -9.3380     0.0070    -0.3190 c          1 57M       0.780100
     48 O49         -9.8950     0.9540     0.2290 o          1 57M      -0.684100
     49 N50         -9.9000    -0.7360    -1.3020 ns         1 57M      -0.541900
     50 C51        -11.3000    -0.6750    -1.6550 c3         1 57M      -0.031300
     51 C52        -11.5480     0.1240    -2.9490 c3         1 57M      -0.052700
     52 C53        -11.1650     1.5910    -2.7940 c3         1 57M      -0.077600
     53 C54        -10.8370    -0.4930    -4.1490 c3         1 57M      -0.077600
     54 C55        -11.8670    -2.1090    -1.8020 c          1 57M       0.920600
     55 O56        -11.0520    -3.0540    -1.7950 o          1 57M      -0.832800
     56 O57        -13.1020    -2.1890    -1.9370 o          1 57M      -0.832800
     57 C58         -7.0580    -0.4990     2.2490 c6         1 57M       0.222500
     58 N59         -6.1910     0.2140     3.1640 nu         1 57M      -0.901200
     59 C60         -6.2140    -0.0970     4.5010 c2         1 57M       0.809100
     60 N61         -7.0700    -0.8390     5.0950 n2         1 57M      -0.760900
     61 N62         -5.2450     0.5520     5.2380 nv         1 57M      -0.909800
     62 C63         -8.3730    -0.7520     2.9670 c6         1 57M      -0.112400
     63 C64         -8.0970    -1.4590     4.2880 c6         1 57M       0.141800
     64 H1           0.4880     0.4200    -0.6290 hc         1 57M       0.043200
     65 H2           0.5630     1.6130     0.6630 hc         1 57M       0.043200
     66 H3           2.8260    -0.0430    -0.4570 hn         1 57M       0.308800
     67 H5           3.7480    -1.5800     1.3120 h1         1 57M       0.005700
     68 H6           6.9030     2.4520    -1.4310 h1         1 57M       0.059700
     69 H7           9.0460     3.4570    -0.9410 h1         1 57M       0.040700
     70 H8          -1.9880     3.0640    -1.4740 hc         1 57M       0.031867
     71 H9          -2.7090     4.6580    -1.6690 hc         1 57M       0.031867
     72 H10         -1.0020     4.4970    -1.2560 hc         1 57M       0.031867
     73 H11         -1.6140     3.5280     0.9540 hc         1 57M       0.069700
     74 H12         -2.9320     6.2240     0.4050 hc         1 57M       0.031867
     75 H13         -2.4580     5.6200     1.9930 hc         1 57M       0.031867
     76 H14         -1.2300     5.9570     0.7750 hc         1 57M       0.031867
     77 H17         -3.8520     2.0300    -0.7930 h1         1 57M       0.070700
     78 H18         -1.9030     1.0660    -0.5810 hn         1 57M       0.312500
     79 H19         -1.0260    -1.0000     0.7600 h1         1 57M       0.055200
     80 H20         -0.9430     0.1770     2.0610 h1         1 57M       0.055200
     81 H21          1.6110    -0.0190     2.1690 h1         1 57M       0.034700
     82 H22          1.4240    -1.3050     0.9850 h1         1 57M       0.034700
     83 H23          5.9890    -1.0970     0.7630 h1         1 57M       0.086700
     84 H24          7.5460     0.1590     0.4670 h2         1 57M       0.055700
     85 H25          8.7350     3.1700     1.7620 h1         1 57M       0.071700
     86 H26          8.0110     5.1120     0.3840 h1         1 57M       0.020700
     87 H27          6.5160     4.2790    -0.0080 h1         1 57M       0.020700
     88 H28          7.3490     5.0530     2.6740 hn         1 57M       0.324300
     89 H29          6.1050     5.6350     1.8320 hn         1 57M       0.324300
     90 H31         10.0020     1.1960    -0.6970 ho         1 57M       0.418000
     91 H32          7.5480     0.1830    -2.0750 ho         1 57M       0.439000
     92 H33          4.2790    -0.6850    -1.7360 h1         1 57M       0.080700
     93 H34          6.3560    -2.1930    -3.6170 h2         1 57M       0.056700
     94 H35          9.8370    -3.9440    -0.1060 hn         1 57M       0.344500
     95 H36          8.2620    -2.4940    -4.3430 h4         1 57M       0.151000
     96 H37         10.6200    -3.1370    -4.1580 ha         1 57M       0.166000
     97 H38          4.9730    -3.1080    -0.0690 h1         1 57M       0.086700
     98 H39          5.6800    -4.3660    -1.8860 h1         1 57M       0.055700
     99 H40          4.7820    -4.0740    -3.9130 ho         1 57M       0.392000
    100 H41          2.9110    -3.6160    -0.6940 ho         1 57M       0.410000
    101 H43         -5.9120     2.4730     1.1510 hn         1 57M       0.329500
    102 H44         -7.7660     1.2560     1.2210 h1         1 57M       0.096700
    103 H45         -7.6300    -1.1320    -0.4970 hn         1 57M       0.326500
    104 H46         -9.4750    -1.6240    -1.5290 hn         1 57M       0.327500
    105 H47        -11.8440    -0.1770    -0.8480 h1         1 57M       0.060700
    106 H48        -12.6260     0.0750    -3.1280 hc         1 57M       0.059700
    107 H49        -11.6820     2.0520    -1.9520 hc         1 57M       0.020700
    108 H50        -10.0920     1.7090    -2.6290 hc         1 57M       0.020700
    109 H51        -11.4230     2.1510    -3.6950 hc         1 57M       0.020700
    110 H52        -11.1650    -1.5140    -4.3460 hc         1 57M       0.020700
    111 H53        -11.0310     0.0900    -5.0520 hc         1 57M       0.020700
    112 H54         -9.7550    -0.5110    -3.9990 hc         1 57M       0.020700
    113 H56         -6.6190    -1.4640     1.9600 h1         1 57M       0.045700
    114 H57         -5.2980     0.5330     2.8060 hn         1 57M       0.443800
    115 H58         -4.3800     0.7560     4.7630 hn         1 57M       0.404800
    116 H59         -5.0890     0.1380     6.1430 hn         1 57M       0.404800
    117 H60         -8.8720     0.2040     3.1480 hc         1 57M       0.068200
    118 H61         -9.0340    -1.3570     2.3460 hc         1 57M       0.068200
    119 H62         -7.8280    -2.5030     4.0850 h1         1 57M       0.039200
    120 H63         -9.0230    -1.5050     4.8690 h1         1 57M       0.039200
    121 H15         -3.9580     3.6950     1.7630 hc         1 57M       0.052200
    122 C02         -2.3450     4.1330     0.4060 c3         1 57M      -0.062700
    123 H16         -4.4780     4.2210     0.1690 hc         1 57M       0.052200
@<TRIPOS>BOND
     1     1    13 1   
     2     1    14 1   
     3     1    64 1   
     4     1    65 1   
     5     2     3 1   
     6     2    14 1   
     7     2    66 1   
     8     3    15 1   
     9     3    39 1   
    10     3    67 1   
    11     4     5 1   
    12     4    17 1   
    13     4    23 1   
    14     4    68 1   
    15     5    19 1   
    16     5    22 1   
    17     5    69 1   
    18     6    70 1   
    19     6    71 1   
    20     6    72 1   
    21     6   122 1   
    22     7    74 1   
    23     7    75 1   
    24     7    76 1   
    25     7   122 1   
    26     8     9 1   
    27     8   121 1   
    28     8   122 1   
    29     8   123 1   
    30     9    10 1   
    31     9    42 1   
    32     9    77 1   
    33    10    11 2   
    34    10    12 1   
    35    12    13 1   
    36    12    78 1   
    37    13    79 1   
    38    13    80 1   
    39    14    81 1   
    40    14    82 1   
    41    15    16 1   
    42    15    24 1   
    43    15    83 1   
    44    16    17 1   
    45    17    18 1   
    46    17    84 1   
    47    18    19 1   
    48    19    20 1   
    49    19    85 1   
    50    20    21 1   
    51    20    86 1   
    52    20    87 1   
    53    21    88 1   
    54    21    89 1   
    55    22    90 1   
    56    23    91 1   
    57    24    25 1   
    58    24    35 1   
    59    24    92 1   
    60    25    26 1   
    61    26    27 1   
    62    26    36 1   
    63    26    93 1   
    64    27    28 1   
    65    27    33 1   
    66    28    29 1   
    67    28    32 2   
    68    29    30 1   
    69    29    94 1   
    70    30    31 2   
    71    30    34 1   
    72    33    34 2   
    73    33    95 1   
    74    34    96 1   
    75    35    36 1   
    76    35    38 1   
    77    35    97 1   
    78    36    37 1   
    79    36    98 1   
    80    37    99 1   
    81    38   100 1   
    82    39    40 1   
    83    39    41 1   
    84    42    43 1   
    85    42   101 1   
    86    43    44 2   
    87    43    45 1   
    88    45    46 1   
    89    45    57 1   
    90    45   102 1   
    91    46    47 1   
    92    46   103 1   
    93    47    48 2   
    94    47    49 1   
    95    49    50 1   
    96    49   104 1   
    97    50    51 1   
    98    50    54 1   
    99    50   105 1   
   100    51    52 1   
   101    51    53 1   
   102    51   106 1   
   103    52   107 1   
   104    52   108 1   
   105    52   109 1   
   106    53   110 1   
   107    53   111 1   
   108    53   112 1   
   109    54    55 1   
   110    54    56 1   
   111    57    58 1   
   112    57    62 1   
   113    57   113 1   
   114    58    59 1   
   115    58   114 1   
   116    59    60 2   
   117    59    61 1   
   118    60    63 1   
   119    61   115 1   
   120    61   116 1   
   121    62    63 1   
   122    62   117 1   
   123    62   118 1   
   124    63   119 1   
   125    63   120 1   
   126    73   122 1   
@<TRIPOS>SUBSTRUCTURE
     1 57M         1 TEMP              0 ****  ****    0 ROOT
