@<TRIPOS>MOLECULE
57N
   40    43     1     0     0
SMALL
bcc


@<TRIPOS>ATOM
      1 C14         -3.3810     0.8260     0.3190 cc         1 57N       0.533300
      2 C11         -1.0070     0.3720     0.2410 c          1 57N       0.651100
      3 C10         -0.2110    -2.0140     0.0260 ca         1 57N      -0.119300
      4 C01          5.3520     2.0930     0.2040 ca         1 57N      -0.141000
      5 C02          4.2710     1.8760     1.0460 ca         1 57N      -0.053000
      6 C03          3.2490     1.0620     0.5850 ca         1 57N      -0.157600
      7 C04          3.2850     0.4770    -0.6700 ca         1 57N      -0.077300
      8 C05          4.3620     0.6910    -1.5140 ca         1 57N      -0.119000
      9 C06          5.3930     1.5050    -1.0610 ca         1 57N      -0.103000
     10 C07          1.9950     0.6700     1.2520 c          1 57N       0.728100
     11 O08          1.5870     1.0110     2.3490 o          1 57N      -0.614500
     12 C09          0.0380    -0.6630     0.6610 c3         1 57N       0.103000
     13 N12         -2.2770     0.0520     0.5930 ns         1 57N      -0.531400
     14 O13         -0.7340     1.4000    -0.3410 o          1 57N      -0.561100
     15 N15         -4.5690     0.4590     0.6720 nd         1 57N      -0.706000
     16 C16         -5.4910     1.3930     0.2890 cd         1 57N       0.368200
     17 C17         -4.9990     2.4750    -0.3580 cc         1 57N      -0.250400
     18 S18         -3.2870     2.3410    -0.5100 ss         1 57N      -0.094300
     19 C19         -0.6350    -2.1310    -1.2950 ca         1 57N      -0.109500
     20 C20         -0.8210    -3.3830    -1.8630 ca         1 57N      -0.128000
     21 C21         -0.5840    -4.5290    -1.1140 ca         1 57N      -0.112000
     22 C22         -0.1630    -4.4190     0.2040 ca         1 57N      -0.128000
     23 C23          0.0220    -3.1650     0.7710 ca         1 57N      -0.109500
     24 C24          2.0430    -0.3300    -0.8770 c5         1 57N       0.147300
     25 N25          1.3600    -0.1730     0.3930 n          1 57N      -0.469800
     26 H2           4.2280     2.3280     2.0290 ha         1 57N       0.153000
     27 H3           4.4050     0.2410    -2.4980 ha         1 57N       0.138000
     28 H4           6.2440     1.6900    -1.7040 ha         1 57N       0.133000
     29 H5          -0.0520    -0.7780     1.7460 h1         1 57N       0.100700
     30 H6          -2.4640    -0.8150     1.0810 hn         1 57N       0.346500
     31 H7          -6.5350     1.2290     0.5140 h4         1 57N       0.039100
     32 H8          -5.5320     3.3270    -0.7480 h4         1 57N       0.178000
     33 H9          -0.8190    -1.2470    -1.8970 ha         1 57N       0.139500
     34 H10         -1.1500    -3.4620    -2.8900 ha         1 57N       0.137500
     35 H11         -0.7330    -5.5050    -1.5570 ha         1 57N       0.136000
     36 H12          0.0190    -5.3080     0.7930 ha         1 57N       0.137500
     37 H13          0.3460    -3.0820     1.8020 ha         1 57N       0.139500
     38 H14          1.4480     0.0590    -1.7080 h1         1 57N       0.068700
     39 H15          2.2630    -1.3790    -1.0870 h1         1 57N       0.068700
     40 H1           6.1710     2.7230     0.5270 ha         1 57N       0.137000
@<TRIPOS>BOND
     1     1    13 1   
     2     1    15 2   
     3     1    18 1   
     4     2    12 1   
     5     2    13 1   
     6     2    14 2   
     7     3    12 1   
     8     3    19 ar  
     9     3    23 ar  
    10     4     5 ar  
    11     4     9 ar  
    12     4    40 1   
    13     5     6 ar  
    14     5    26 1   
    15     6     7 ar  
    16     6    10 1   
    17     7     8 ar  
    18     7    24 1   
    19     8     9 ar  
    20     8    27 1   
    21     9    28 1   
    22    10    11 2   
    23    10    25 1   
    24    12    25 1   
    25    12    29 1   
    26    13    30 1   
    27    15    16 1   
    28    16    17 2   
    29    16    31 1   
    30    17    18 1   
    31    17    32 1   
    32    19    20 ar  
    33    19    33 1   
    34    20    21 ar  
    35    20    34 1   
    36    21    22 ar  
    37    21    35 1   
    38    22    23 ar  
    39    22    36 1   
    40    23    37 1   
    41    24    25 1   
    42    24    38 1   
    43    24    39 1   
@<TRIPOS>SUBSTRUCTURE
     1 57N         1 TEMP              0 ****  ****    0 ROOT
