@<TRIPOS>MOLECULE
57N
   40    43     1     0     0
SMALL
No Charge or Current Charge


@<TRIPOS>ATOM
      1 C14         -3.5190     0.8360     0.3470 cc         1 57N       0.533300
      2 C11         -1.0690     0.5280     0.1560 c          1 57N       0.584100
      3 C10         -0.2450    -1.8790    -0.0720 ca         1 57N      -0.119300
      4 C01          5.5870     2.0680     0.2420 ca         1 57N      -0.123000
      5 C02          4.3910     2.0060     0.9860 ca         1 57N      -0.035000
      6 C03          3.3750     1.1550     0.5280 ca         1 57N      -0.157600
      7 C04          3.5120     0.3890    -0.6170 ca         1 57N      -0.077300
      8 C05          4.6980     0.4430    -1.3650 ca         1 57N      -0.101000
      9 C06          5.7390     1.2890    -0.9290 ca         1 57N      -0.085000
     10 C07          2.0430     0.9020     1.1040 c          1 57N       0.585600
     11 O08          1.5680     1.4030     2.1140 o          1 57N      -0.539000
     12 C09          0.0340    -0.5020     0.5400 c3         1 57N       0.103000
     13 N12         -2.3400     0.1690     0.5420 ns         1 57N      -0.464400
     14 O13         -0.8320     1.5590    -0.4600 o          1 57N      -0.561100
     15 N15         -4.6140     0.2650     0.8130 nd         1 57N      -0.706000
     16 C16         -5.7190     1.0600     0.5380 cd         1 57N       0.302900
     17 C17         -5.4400     2.2260    -0.1330 cc         1 57N      -0.312000
     18 S18         -3.7380     2.3780    -0.4560 ss         1 57N       0.050600
     19 C19         -0.6020    -2.0090    -1.4320 ca         1 57N      -0.091500
     20 C20         -0.8510    -3.2780    -1.9830 ca         1 57N      -0.110000
     21 C21         -0.7440    -4.4260    -1.1820 ca         1 57N      -0.094000
     22 C22         -0.3850    -4.3050     0.1710 ca         1 57N      -0.110000
     23 C23         -0.1350    -3.0370     0.7230 ca         1 57N      -0.091500
     24 C24          2.2680    -0.4450    -0.8960 c5         1 57N       0.147300
     25 N25          1.4190    -0.0350     0.2680 n          1 57N      -0.402800
     26 H2           4.2610     2.6000     1.8890 ha         1 57N       0.135000
     27 H3           4.8140    -0.1570    -2.2660 ha         1 57N       0.120000
     28 H4           6.6660     1.3430    -1.4970 ha         1 57N       0.115000
     29 H5          -0.0590    -0.6080     1.6290 h1         1 57N       0.100700
     30 H6          -2.4140    -0.7160     1.0200 hn         1 57N       0.346500
     31 H7          -6.7030     0.7350     0.8540 h4         1 57N       0.039100
     32 H8          -6.1250     2.9990    -0.4550 h4         1 57N       0.160000
     33 H9          -0.6820    -1.1290    -2.0680 ha         1 57N       0.121500
     34 H10         -1.1250    -3.3700    -3.0310 ha         1 57N       0.119500
     35 H11         -0.9360    -5.4080    -1.6090 ha         1 57N       0.118000
     36 H12         -0.2980    -5.1950     0.7910 ha         1 57N       0.119500
     37 H13          0.1480    -2.9580     1.7710 ha         1 57N       0.121500
     38 H14          1.8070    -0.1760    -1.8560 h1         1 57N       0.068700
     39 H15          2.4890    -1.5200    -0.8850 h1         1 57N       0.068700
     40 H1           6.3950     2.7170     0.5700 ha         1 57N       0.119000
@<TRIPOS>BOND
     1     1    13 1   
     2     1    15 2   
     3     1    18 1   
     4     2    12 1   
     5     2    13 1   
     6     2    14 2   
     7     3    12 1   
     8     3    19 ar  
     9     3    23 ar  
    10     4     5 ar  
    11     4     9 ar  
    12     4    40 1   
    13     5     6 ar  
    14     5    26 1   
    15     6     7 ar  
    16     6    10 1   
    17     7     8 ar  
    18     7    24 1   
    19     8     9 ar  
    20     8    27 1   
    21     9    28 1   
    22    10    11 2   
    23    10    25 1   
    24    12    25 1   
    25    12    29 1   
    26    13    30 1   
    27    15    16 1   
    28    16    17 2   
    29    16    31 1   
    30    17    18 1   
    31    17    32 1   
    32    19    20 ar  
    33    19    33 1   
    34    20    21 ar  
    35    20    34 1   
    36    21    22 ar  
    37    21    35 1   
    38    22    23 ar  
    39    22    36 1   
    40    23    37 1   
    41    24    25 1   
    42    24    38 1   
    43    24    39 1   
@<TRIPOS>SUBSTRUCTURE
     1 57N         1 TEMP              0 ****  ****    0 ROOT
