@<TRIPOS>MOLECULE
57O
   24    24     1     0     0
SMALL
abcg2


@<TRIPOS>ATOM
      1 CAA          3.6680     0.0030    -0.3540 c3         1 57O      -0.016800
      2 CAB         -0.7180    -2.3510     0.3910 c3         1 57O      -0.013800
      3 CAM         -0.4800     0.1720     0.6210 ca         1 57O       0.502300
      4 OAD         -4.1010     0.0430     0.0750 o          1 57O      -0.723000
      5 OAC         -2.3950     0.0830    -1.3610 o          1 57O      -0.723000
      6 CAI         -2.8930     0.1250    -0.2220 c          1 57O       0.728000
      7 CAG         -1.9250     0.3370     0.9690 c3         1 57O      -0.292700
      8 NAH          0.2410     1.2960     0.5660 nb         1 57O      -0.796000
      9 CAL          1.5200     1.2300     0.2590 ca         1 57O       0.607300
     10 CAJ          2.2070     0.0500    -0.0110 ca         1 57O      -0.287300
     11 CAN          1.4370    -1.1100     0.0490 ca         1 57O       0.187100
     12 OAF          1.9690    -2.3170    -0.2070 oh         1 57O      -0.539100
     13 CAK          0.0740    -1.0780     0.3720 ca         1 57O      -0.175300
     14 H1           4.2240    -0.6550     0.3200 hc         1 57O       0.027367
     15 H2           3.8380    -0.3530    -1.3730 hc         1 57O       0.027367
     16 H3           4.1310     0.9830    -0.2810 hc         1 57O       0.027367
     17 H4          -0.8760    -2.7370    -0.6190 hc         1 57O       0.038700
     18 H5          -0.2150    -3.1340     0.9590 hc         1 57O       0.038700
     19 H6          -1.7020    -2.2120     0.8340 hc         1 57O       0.038700
     20 H8          -2.2120    -0.3260     1.7890 hc         1 57O       0.045700
     21 H9          -2.0720     1.3550     1.3400 hc         1 57O       0.045700
     22 H10          2.9080    -2.2490    -0.4110 ho         1 57O       0.454000
     23 H12          1.5730     3.1030     0.4080 ho         1 57O       0.476000
     24 OAE          2.1950     2.3910     0.2070 oh         1 57O      -0.674300
@<TRIPOS>BOND
     1     1    10 1   
     2     1    14 1   
     3     1    15 1   
     4     1    16 1   
     5     2    13 1   
     6     2    17 1   
     7     2    18 1   
     8     2    19 1   
     9     3     7 1   
    10     3     8 ar  
    11     3    13 ar  
    12     4     6 1   
    13     5     6 1   
    14     6     7 1   
    15     7    20 1   
    16     7    21 1   
    17     8     9 ar  
    18     9    10 ar  
    19     9    24 1   
    20    10    11 ar  
    21    11    12 1   
    22    11    13 ar  
    23    12    22 1   
    24    23    24 1   
@<TRIPOS>SUBSTRUCTURE
     1 57O         1 TEMP              0 ****  ****    0 ROOT
