@<TRIPOS>MOLECULE
57O
   24    24     1     0     0
SMALL
No Charge or Current Charge


@<TRIPOS>ATOM
      1 CAA          3.6790    -0.1000    -0.3700 c3         1 57O      -0.016800
      2 CAB         -0.7850    -2.3800     0.5950 c3         1 57O      -0.013800
      3 CAM         -0.5040     0.2030     0.5820 ca         1 57O       0.502300
      4 OAD         -3.2290    -0.7730    -0.6110 o          1 57O      -0.723000
      5 OAC         -2.8530     1.2860    -1.1010 o          1 57O      -0.723000
      6 CAI         -2.7660     0.3250    -0.3540 c          1 57O       0.728000
      7 CAG         -1.9590     0.4830     0.9230 c3         1 57O      -0.292700
      8 NAH          0.2440     1.3220     0.4690 nb         1 57O      -0.796000
      9 CAL          1.5270     1.1890     0.1770 ca         1 57O       0.607300
     10 CAJ          2.1860    -0.0320    -0.0230 ca         1 57O      -0.287300
     11 CAN          1.4160    -1.1960     0.1110 ca         1 57O       0.187100
     12 OAF          1.9990    -2.4160    -0.0750 oh         1 57O      -0.539100
     13 CAK          0.0470    -1.0980     0.4350 ca         1 57O      -0.175300
     14 H1           4.2350    -0.6600     0.3920 hc         1 57O       0.027367
     15 H2           3.8370    -0.5950    -1.3350 hc         1 57O       0.027367
     16 H3           4.1460     0.8890    -0.4400 hc         1 57O       0.027367
     17 H4          -1.1540    -2.7280    -0.3770 hc         1 57O       0.038700
     18 H5          -0.1960    -3.1940     1.0320 hc         1 57O       0.038700
     19 H6          -1.6490    -2.2550     1.2550 hc         1 57O       0.038700
     20 H8          -2.2800    -0.2310     1.6860 hc         1 57O       0.045700
     21 H9          -2.0300     1.5190     1.2750 hc         1 57O       0.045700
     22 H10          2.9420    -2.2680    -0.2920 ho         1 57O       0.454000
     23 H12          1.4030     2.9860     0.2760 ho         1 57O       0.476000
     24 OAE          2.1400     2.3720     0.0890 oh         1 57O      -0.674300
@<TRIPOS>BOND
     1     1    10 1   
     2     1    14 1   
     3     1    15 1   
     4     1    16 1   
     5     2    13 1   
     6     2    17 1   
     7     2    18 1   
     8     2    19 1   
     9     3     7 1   
    10     3     8 ar  
    11     3    13 ar  
    12     4     6 1   
    13     5     6 1   
    14     6     7 1   
    15     7    20 1   
    16     7    21 1   
    17     8     9 ar  
    18     9    10 ar  
    19     9    24 1   
    20    10    11 ar  
    21    11    12 1   
    22    11    13 ar  
    23    12    22 1   
    24    23    24 1   
@<TRIPOS>SUBSTRUCTURE
     1 57O         1 TEMP              0 ****  ****    0 ROOT
