@<TRIPOS>MOLECULE
57P
   51    55     1     0     0
SMALL
abcg2


@<TRIPOS>ATOM
      1 C8          -1.4960     0.1040    -0.1070 ca         1 57P      -0.086800
      2 C2           0.2390     4.6990    -0.5320 ca         1 57P      -0.116500
      3 C4          -0.4400     2.4600     0.0980 ca         1 57P       0.019200
      4 C5          -1.2400     3.0180     1.0990 ca         1 57P      -0.109000
      5 C6          -1.3020     4.3930     1.2800 ca         1 57P      -0.116500
      6 C11         -3.1530    -2.1150    -0.2660 ca         1 57P      -0.110000
      7 C1          -0.5620     5.2400     0.4670 ca         1 57P      -0.131000
      8 C22          1.6720    -2.6650     0.8660 c3         1 57P      -0.235400
      9 C24         -5.1810    -0.6570     0.1150 cx         1 57P      -0.061400
     10 C25         -6.0310    -1.6800     0.8190 cx         1 57P      -0.134400
     11 O1           3.0680    -4.2740    -0.2050 o          1 57P      -0.732500
     12 C23          2.6610    -3.8440     0.8920 c          1 57P       0.723000
     13 O2           2.9740    -4.2690     2.0220 o          1 57P      -0.732500
     14 N            0.3850    -1.0670    -0.5090 na         1 57P      -0.050700
     15 C14          0.7390     0.2470    -0.3290 cc         1 57P       0.024700
     16 C15          2.1380     0.6920    -0.3700 ca         1 57P      -0.032800
     17 C16          2.6900     1.3340     0.7380 ca         1 57P      -0.080500
     18 C17          4.0010     1.7860     0.7100 ca         1 57P      -0.114500
     19 C18          4.7770     1.6000    -0.4270 ca         1 57P      -0.108000
     20 C19          4.2350     0.9630    -1.5360 ca         1 57P      -0.114500
     21 C20          2.9230     0.5140    -1.5090 ca         1 57P      -0.080500
     22 C7          -0.3850     1.0080    -0.0890 cd         1 57P      -0.121400
     23 C3           0.2950     3.3260    -0.7170 ca         1 57P      -0.109000
     24 C13         -0.9710    -1.1780    -0.3600 ca         1 57P      -0.044200
     25 C9          -2.8800     0.2610     0.0340 ca         1 57P      -0.066000
     26 C10         -3.7150    -0.8410    -0.0420 ca         1 57P      -0.088300
     27 C12         -1.7960    -2.3000    -0.4290 ca         1 57P      -0.100000
     28 C26         -6.1650    -1.4950    -0.6560 cx         1 57P      -0.134400
     29 H1           0.8170     5.3490    -1.1760 ha         1 57P       0.101000
     30 H2          -1.8050     2.3680     1.7560 ha         1 57P       0.117000
     31 H3          -1.9250     4.8020     2.0650 ha         1 57P       0.101000
     32 H4          -3.7980    -2.9840    -0.3170 ha         1 57P       0.100000
     33 H5          -0.6080     6.3120     0.6090 ha         1 57P       0.099000
     34 H6           2.1820    -1.9250    -1.0960 h1         1 57P       0.066200
     35 H7           0.8130    -3.0010    -1.0930 h1         1 57P       0.066200
     36 H8           2.1100    -1.8290     1.4210 hc         1 57P       0.034200
     37 H9           0.7710    -2.9470     1.4210 hc         1 57P       0.034200
     38 H10         -5.4740     0.3750     0.2750 hc         1 57P       0.069700
     39 H11         -5.5430    -2.5770     1.1800 hc         1 57P       0.066950
     40 H12         -6.8260    -1.3170     1.4580 hc         1 57P       0.066950
     41 H14          2.0870     1.4760     1.6260 ha         1 57P       0.120500
     42 H15          4.4170     2.2800     1.5770 ha         1 57P       0.107000
     43 H16          5.8010     1.9510    -0.4500 ha         1 57P       0.102000
     44 H17          4.8330     0.8220    -2.4260 ha         1 57P       0.107000
     45 H18          2.4990     0.0420    -2.3870 ha         1 57P       0.120500
     46 H19          0.9100     2.9190    -1.5090 ha         1 57P       0.117000
     47 H20         -3.3020     1.2450     0.2060 ha         1 57P       0.105000
     48 H21         -1.3980    -3.2900    -0.6100 ha         1 57P       0.128000
     49 H22         -7.0530    -1.0070    -1.0380 hc         1 57P       0.066950
     50 H23         -5.7670    -2.2650    -1.3050 hc         1 57P       0.066950
     51 C21          1.2950    -2.2010    -0.5320 c3         1 57P       0.078600
@<TRIPOS>BOND
     1     1    22 1   
     2     1    24 ar  
     3     1    25 ar  
     4     2     7 ar  
     5     2    23 ar  
     6     2    29 1   
     7     3     4 ar  
     8     3    22 1   
     9     3    23 ar  
    10     4     5 ar  
    11     4    30 1   
    12     5     7 ar  
    13     5    31 1   
    14     6    26 ar  
    15     6    27 ar  
    16     6    32 1   
    17     7    33 1   
    18     8    12 1   
    19     8    36 1   
    20     8    37 1   
    21     8    51 1   
    22     9    10 1   
    23     9    26 1   
    24     9    28 1   
    25     9    38 1   
    26    10    28 1   
    27    10    39 1   
    28    10    40 1   
    29    11    12 1   
    30    12    13 1   
    31    14    15 1   
    32    14    24 1   
    33    14    51 1   
    34    15    16 1   
    35    15    22 2   
    36    16    17 ar  
    37    16    21 ar  
    38    17    18 ar  
    39    17    41 1   
    40    18    19 ar  
    41    18    42 1   
    42    19    20 ar  
    43    19    43 1   
    44    20    21 ar  
    45    20    44 1   
    46    21    45 1   
    47    23    46 1   
    48    24    27 ar  
    49    25    26 ar  
    50    25    47 1   
    51    27    48 1   
    52    28    49 1   
    53    28    50 1   
    54    34    51 1   
    55    35    51 1   
@<TRIPOS>SUBSTRUCTURE
     1 57P         1 TEMP              0 ****  ****    0 ROOT
