@<TRIPOS>MOLECULE
57P
   51    55     1     0     0
SMALL
No Charge or Current Charge


@<TRIPOS>ATOM
      1 C8          -1.4410     0.0570     0.0150 ca         1 57P      -0.086800
      2 C2           0.2690     4.6910    -0.6000 ca         1 57P      -0.116500
      3 C4          -0.4300     2.4460     0.0950 ca         1 57P       0.019200
      4 C5          -1.3640     3.0400     0.9700 ca         1 57P      -0.109000
      5 C6          -1.4850     4.4380     1.0580 ca         1 57P      -0.116500
      6 C11         -3.1470    -2.1440    -0.1220 ca         1 57P      -0.110000
      7 C1          -0.6700     5.2650     0.2700 ca         1 57P      -0.131000
      8 C22          1.6580    -2.9480     0.8470 c3         1 57P      -0.235400
      9 C24         -5.1810    -0.6330     0.2260 cx         1 57P      -0.061400
     10 C25         -6.0760    -1.6250     0.9370 cx         1 57P      -0.134400
     11 O1           3.7490    -4.0070     0.5450 o          1 57P      -0.732500
     12 C23          2.5400    -4.1710     0.5980 c          1 57P       0.723000
     13 O2           1.9910    -5.2440     0.4020 o          1 57P      -0.732500
     14 N            0.4500    -1.1070    -0.3760 na         1 57P      -0.050700
     15 C14          0.8490     0.2360    -0.2730 cc         1 57P       0.024700
     16 C15          2.2050     0.7820    -0.3290 ca         1 57P      -0.032800
     17 C16          2.6950     1.5770     0.7270 ca         1 57P      -0.080500
     18 C17          3.9980     2.1020     0.6760 ca         1 57P      -0.114500
     19 C18          4.8210     1.8350    -0.4300 ca         1 57P      -0.108000
     20 C19          4.3400     1.0430    -1.4860 ca         1 57P      -0.114500
     21 C20          3.0370     0.5180    -1.4350 ca         1 57P      -0.080500
     22 C7          -0.3030     0.9710     0.0150 cd         1 57P      -0.121400
     23 C3           0.3900     3.2930    -0.6840 ca         1 57P      -0.109000
     24 C13         -0.9270    -1.1970    -0.2140 ca         1 57P      -0.044200
     25 C9          -2.8250     0.2670     0.1420 ca         1 57P      -0.066000
     26 C10         -3.6930    -0.8490     0.0820 ca         1 57P      -0.088300
     27 C12         -1.7590    -2.3260    -0.2810 ca         1 57P      -0.100000
     28 C26         -6.1940    -1.4400    -0.5560 cx         1 57P      -0.134400
     29 H1           0.9020     5.3290    -1.2140 ha         1 57P       0.101000
     30 H2          -1.9710     2.4210     1.6250 ha         1 57P       0.117000
     31 H3          -2.2040     4.8790     1.7450 ha         1 57P       0.101000
     32 H4          -3.7970    -3.0130    -0.1740 ha         1 57P       0.100000
     33 H5          -0.7620     6.3470     0.3380 ha         1 57P       0.099000
     34 H6           2.2400    -2.0120    -1.0150 h1         1 57P       0.066200
     35 H7           0.8080    -3.0310    -1.1540 h1         1 57P       0.066200
     36 H8           2.2020    -2.1850     1.4170 hc         1 57P       0.034200
     37 H9           0.7040    -3.2440     1.2990 hc         1 57P       0.034200
     38 H10         -5.4300     0.4150     0.3760 hc         1 57P       0.069700
     39 H11         -5.6350    -2.5490     1.3020 hc         1 57P       0.066950
     40 H12         -6.8730    -1.2270     1.5610 hc         1 57P       0.066950
     41 H14          2.0640     1.7850     1.5880 ha         1 57P       0.120500
     42 H15          4.3690     2.7150     1.4950 ha         1 57P       0.107000
     43 H16          5.8290     2.2420    -0.4700 ha         1 57P       0.102000
     44 H17          4.9750     0.8380    -2.3450 ha         1 57P       0.107000
     45 H18          2.6680    -0.0830    -2.2630 ha         1 57P       0.120500
     46 H19          1.1060     2.8740    -1.3860 ha         1 57P       0.117000
     47 H20         -3.2340     1.2640     0.2640 ha         1 57P       0.105000
     48 H21         -1.3540    -3.3200    -0.4550 ha         1 57P       0.128000
     49 H22         -7.0700    -0.9180    -0.9350 hc         1 57P       0.066950
     50 H23         -5.8320    -2.2390    -1.1990 hc         1 57P       0.066950
     51 C21          1.3110    -2.2990    -0.5090 c3         1 57P       0.078600
@<TRIPOS>BOND
     1     1    22 1   
     2     1    24 ar  
     3     1    25 ar  
     4     2     7 ar  
     5     2    23 ar  
     6     2    29 1   
     7     3     4 ar  
     8     3    22 1   
     9     3    23 ar  
    10     4     5 ar  
    11     4    30 1   
    12     5     7 ar  
    13     5    31 1   
    14     6    26 ar  
    15     6    27 ar  
    16     6    32 1   
    17     7    33 1   
    18     8    12 1   
    19     8    36 1   
    20     8    37 1   
    21     8    51 1   
    22     9    10 1   
    23     9    26 1   
    24     9    28 1   
    25     9    38 1   
    26    10    28 1   
    27    10    39 1   
    28    10    40 1   
    29    11    12 1   
    30    12    13 1   
    31    14    15 1   
    32    14    24 1   
    33    14    51 1   
    34    15    16 1   
    35    15    22 2   
    36    16    17 ar  
    37    16    21 ar  
    38    17    18 ar  
    39    17    41 1   
    40    18    19 ar  
    41    18    42 1   
    42    19    20 ar  
    43    19    43 1   
    44    20    21 ar  
    45    20    44 1   
    46    21    45 1   
    47    23    46 1   
    48    24    27 ar  
    49    25    26 ar  
    50    25    47 1   
    51    27    48 1   
    52    28    49 1   
    53    28    50 1   
    54    34    51 1   
    55    35    51 1   
@<TRIPOS>SUBSTRUCTURE
     1 57P         1 TEMP              0 ****  ****    0 ROOT
