@<TRIPOS>MOLECULE
57Q
   34    36     1     0     0
SMALL
abcg2


@<TRIPOS>ATOM
      1 O1           1.3040    -3.5250    -1.3680 o          1 57Q      -0.731500
      2 C17          0.8560    -3.5440    -0.2050 c          1 57Q       0.721000
      3 O2           0.9250    -4.4880     0.6070 o          1 57Q      -0.731500
      4 C16          0.1400    -2.2780     0.2990 c3         1 57Q      -0.233400
      5 C15          0.0570    -1.1600    -0.7290 c3         1 57Q       0.078600
      6 N           -0.5900     0.0370    -0.2190 na         1 57Q      -0.057700
      7 C14         -1.9460     0.1670    -0.0860 ca         1 57Q      -0.042200
      8 C13         -2.9600    -0.7620    -0.3220 ca         1 57Q      -0.102000
      9 C12         -4.2640    -0.3530    -0.1170 ca         1 57Q      -0.118000
     10 C11         -4.5620     0.9520     0.3120 ca         1 57Q      -0.153000
     11 C10         -3.5580     1.8730     0.5350 ca         1 57Q      -0.076000
     12 C9          -2.2270     1.4880     0.3280 ca         1 57Q      -0.106800
     13 C8          -0.9740     2.1540     0.4280 cc         1 57Q      -0.257200
     14 C7          -0.0040     1.2460     0.0890 cd         1 57Q      -0.004300
     15 C4           1.4430     1.4860     0.0450 ca         1 57Q      -0.027800
     16 C3           1.9220     2.6270    -0.6020 ca         1 57Q      -0.088500
     17 C2           3.2800     2.9090    -0.6270 ca         1 57Q      -0.118000
     18 C5           2.3590     0.6360     0.6670 ca         1 57Q      -0.088500
     19 C6           3.7170     0.9150     0.6340 ca         1 57Q      -0.118000
     20 C1           4.1830     2.0520    -0.0130 ca         1 57Q      -0.115000
     21 H2          -0.8620    -2.5580     0.6390 hc         1 57Q       0.030700
     22 H3           0.6550    -1.9230     1.1970 hc         1 57Q       0.030700
     23 H4           1.0500    -0.8850    -1.0800 h1         1 57Q       0.065700
     24 H5          -0.4970    -1.4920    -1.6090 h1         1 57Q       0.065700
     25 H6          -2.7450    -1.7690    -0.6540 ha         1 57Q       0.130000
     26 H7          -5.0720    -1.0520    -0.2900 ha         1 57Q       0.099000
     27 H8          -5.5950     1.2360     0.4660 ha         1 57Q       0.093000
     28 H9          -3.7960     2.8790     0.8580 ha         1 57Q       0.097000
     29 H10         -0.7950     3.1720     0.7390 ha         1 57Q       0.191000
     30 H11          1.2260     3.2900    -1.1010 ha         1 57Q       0.125500
     31 H12          3.6330     3.7970    -1.1350 ha         1 57Q       0.107000
     32 H13          2.0140    -0.2390     1.2040 ha         1 57Q       0.125500
     33 H14          4.4120     0.2450     1.1250 ha         1 57Q       0.107000
     34 H15          5.2430     2.2700    -0.0370 ha         1 57Q       0.101000
@<TRIPOS>BOND
     1     1     2 1   
     2     2     3 1   
     3     2     4 1   
     4     4     5 1   
     5     4    21 1   
     6     4    22 1   
     7     5     6 1   
     8     5    23 1   
     9     5    24 1   
    10     6     7 1   
    11     6    14 1   
    12     7     8 ar  
    13     7    12 ar  
    14     8     9 ar  
    15     8    25 1   
    16     9    10 ar  
    17     9    26 1   
    18    10    11 ar  
    19    10    27 1   
    20    11    12 ar  
    21    11    28 1   
    22    12    13 1   
    23    13    14 2   
    24    13    29 1   
    25    14    15 1   
    26    15    16 ar  
    27    15    18 ar  
    28    16    17 ar  
    29    16    30 1   
    30    17    20 ar  
    31    17    31 1   
    32    18    19 ar  
    33    18    32 1   
    34    19    20 ar  
    35    19    33 1   
    36    20    34 1   
@<TRIPOS>SUBSTRUCTURE
     1 57Q         1 TEMP              0 ****  ****    0 ROOT
