@<TRIPOS>MOLECULE
57Q
   34    36     1     0     0
SMALL
No Charge or Current Charge


@<TRIPOS>ATOM
      1 O1           2.0470    -3.7080    -0.0930 o          1 57Q      -0.731500
      2 C17          0.8280    -3.6600    -0.0650 c          1 57Q       0.721000
      3 O2           0.1020    -4.5090    -0.5570 o          1 57Q      -0.731500
      4 C16          0.1720    -2.4230     0.5500 c3         1 57Q      -0.233400
      5 C15         -0.0140    -1.3580    -0.5560 c3         1 57Q       0.078600
      6 N           -0.5850    -0.0860    -0.0640 na         1 57Q      -0.057700
      7 C14         -1.9610     0.1200     0.0140 ca         1 57Q      -0.042200
      8 C13         -3.0010    -0.8270    -0.0480 ca         1 57Q      -0.102000
      9 C12         -4.3330    -0.3680     0.0490 ca         1 57Q      -0.118000
     10 C11         -4.6050     1.0110     0.2020 ca         1 57Q      -0.153000
     11 C10         -3.5460     1.9400     0.2590 ca         1 57Q      -0.076000
     12 C9          -2.2390     1.4480     0.1600 ca         1 57Q      -0.106800
     13 C8          -0.9930     2.1420     0.1820 cc         1 57Q      -0.257200
     14 C7           0.0310     1.1990     0.0800 cd         1 57Q      -0.004300
     15 C4           1.4800     1.5350     0.0030 ca         1 57Q      -0.027800
     16 C3           1.8840     2.8630    -0.2760 ca         1 57Q      -0.088500
     17 C2           3.2450     3.2090    -0.3500 ca         1 57Q      -0.118000
     18 C5           2.4930     0.5730     0.2300 ca         1 57Q      -0.088500
     19 C6           3.8530     0.9200     0.1580 ca         1 57Q      -0.118000
     20 C1           4.2320     2.2370    -0.1370 ca         1 57Q      -0.115000
     21 H2          -0.8310    -2.6630     0.9200 hc         1 57Q       0.030700
     22 H3           0.8220    -1.9790     1.3130 hc         1 57Q       0.030700
     23 H4           0.9390    -1.1560    -1.0580 h1         1 57Q       0.065700
     24 H5          -0.6840    -1.7590    -1.3270 h1         1 57Q       0.065700
     25 H6          -2.7960    -1.8870    -0.1690 ha         1 57Q       0.130000
     26 H7          -5.1540    -1.0800     0.0040 ha         1 57Q       0.099000
     27 H8          -5.6330     1.3570     0.2760 ha         1 57Q       0.093000
     28 H9          -3.7380     3.0040     0.3750 ha         1 57Q       0.097000
     29 H10         -0.8670     3.2150     0.2880 ha         1 57Q       0.191000
     30 H11          1.1490     3.6390    -0.4630 ha         1 57Q       0.125500
     31 H12          3.5320     4.2330    -0.5770 ha         1 57Q       0.107000
     32 H13          2.2460    -0.4440     0.5040 ha         1 57Q       0.125500
     33 H14          4.6150     0.1650     0.3410 ha         1 57Q       0.107000
     34 H15          5.2850     2.5040    -0.1920 ha         1 57Q       0.101000
@<TRIPOS>BOND
     1     1     2 1   
     2     2     3 1   
     3     2     4 1   
     4     4     5 1   
     5     4    21 1   
     6     4    22 1   
     7     5     6 1   
     8     5    23 1   
     9     5    24 1   
    10     6     7 1   
    11     6    14 1   
    12     7     8 ar  
    13     7    12 ar  
    14     8     9 ar  
    15     8    25 1   
    16     9    10 ar  
    17     9    26 1   
    18    10    11 ar  
    19    10    27 1   
    20    11    12 ar  
    21    11    28 1   
    22    12    13 1   
    23    13    14 2   
    24    13    29 1   
    25    14    15 1   
    26    15    16 ar  
    27    15    18 ar  
    28    16    17 ar  
    29    16    30 1   
    30    17    20 ar  
    31    17    31 1   
    32    18    19 ar  
    33    18    32 1   
    34    19    20 ar  
    35    19    33 1   
    36    20    34 1   
@<TRIPOS>SUBSTRUCTURE
     1 57Q         1 TEMP              0 ****  ****    0 ROOT
