@<TRIPOS>MOLECULE
57R
   53    55     1     0     0
SMALL
No Charge or Current Charge


@<TRIPOS>ATOM
      1 O1           0.7500     3.0660     1.1310 oh         1 57R      -0.652000
      2 C1           6.6340    -3.0940     0.7210 c3         1 57R       0.147900
      3 C2           4.7320    -1.5250     0.6160 ca         1 57R       0.156100
      4 N1           0.7710     1.1130    -1.3230 na         1 57R       0.144800
      5 C3           5.0110    -1.1540    -0.7170 ca         1 57R      -0.175500
      6 C4           4.1970    -0.2120    -1.3710 ca         1 57R      -0.042500
      7 O2          -3.2390     0.1280     0.4790 os         1 57R      -0.460100
      8 C5           3.0980     0.3650    -0.7060 ca         1 57R      -0.147300
      9 O3          -4.2220    -0.5130    -1.5000 o          1 57R      -0.532000
     10 C6           2.8260    -0.0040     0.6270 ca         1 57R      -0.042500
     11 C7           3.6390    -0.9450     1.2800 ca         1 57R      -0.175500
     12 C16         -3.9390    -0.7150    -0.3300 c          1 57R       0.648100
     13 N4          -4.3480    -1.7910     0.4060 ns         1 57R      -0.495900
     14 C17         -5.1340    -2.9060    -0.1130 c3         1 57R       0.125700
     15 C18         -4.2330    -3.9100    -0.8590 c3         1 57R      -0.111100
     16 C19         -5.9290    -3.5720     1.0260 c3         1 57R      -0.111100
     17 C13         -2.6310     1.3230    -0.0580 c6         1 57R       0.184000
     18 C14         -2.3800     2.3300     1.0910 c6         1 57R      -0.078400
     19 C15         -1.5740     3.5520     0.5760 c6         1 57R      -0.096400
     20 C10         -0.1560     3.1750     0.0370 c6         1 57R       0.260300
     21 C9           0.3440     4.3140    -0.8940 c3         1 57R      -0.126100
     22 C11         -0.2150     1.8400    -0.6840 cc         1 57R      -0.178300
     23 C12         -1.3050     1.0150    -0.7480 cd         1 57R       0.182300
     24 N3          -0.9860    -0.1110    -1.4820 nd         1 57R      -0.337000
     25 N2           0.2700    -0.0510    -1.8320 nc         1 57R      -0.190800
     26 C8           2.2180     1.3910    -1.4200 c3         1 57R       0.141900
     27 H1           0.7560     3.9410     1.5740 ho         1 57R       0.446000
     28 H2           6.3390    -3.6740    -0.1620 h1         1 57R       0.042033
     29 H3           7.3920    -2.3590     0.4230 h1         1 57R       0.042033
     30 H4           7.0930    -3.7820     1.4420 h1         1 57R       0.042033
     31 H5           5.8490    -1.5820    -1.2580 ha         1 57R       0.124500
     32 H6           4.4230     0.0660    -2.3990 ha         1 57R       0.117500
     33 H7           1.9850     0.4380     1.1580 ha         1 57R       0.117500
     34 H8           3.4230    -1.2260     2.3070 ha         1 57R       0.124500
     35 H9          -4.0530    -1.8030     1.3730 hn         1 57R       0.319500
     36 H10         -5.8610    -2.5040    -0.8340 h1         1 57R       0.077700
     37 H11         -4.8300    -4.7320    -1.2710 hc         1 57R       0.042700
     38 H12         -3.7110    -3.4200    -1.6900 hc         1 57R       0.042700
     39 H13         -3.4810    -4.3350    -0.1830 hc         1 57R       0.042700
     40 H14         -6.5840    -2.8420     1.5160 hc         1 57R       0.042700
     41 H15         -6.5570    -4.3820     0.6350 hc         1 57R       0.042700
     42 H16         -5.2540    -3.9930     1.7810 hc         1 57R       0.042700
     43 H17         -3.3190     1.7880    -0.7800 h1         1 57R       0.079700
     44 H18         -3.3410     2.6620     1.5070 hc         1 57R       0.065200
     45 H19         -1.8330     1.8390     1.9070 hc         1 57R       0.065200
     46 H20         -2.1560     4.0310    -0.2240 hc         1 57R       0.051700
     47 H21         -1.4910     4.3050     1.3720 hc         1 57R       0.051700
     48 H22          1.3840     4.1840    -1.2080 hc         1 57R       0.048700
     49 H23         -0.2660     4.3710    -1.8040 hc         1 57R       0.048700
     50 H24          0.2800     5.2890    -0.3970 hc         1 57R       0.048700
     51 H25          2.4840     1.4420    -2.4830 h1         1 57R       0.067200
     52 H26          2.4300     2.3690    -0.9800 h1         1 57R       0.067200
     53 O4           5.4940    -2.4430     1.3100 os         1 57R      -0.340100
@<TRIPOS>BOND
     1     1    20 1   
     2     1    27 1   
     3     2    28 1   
     4     2    29 1   
     5     2    30 1   
     6     2    53 1   
     7     3     5 ar  
     8     3    11 ar  
     9     3    53 1   
    10     4    22 1   
    11     4    25 1   
    12     4    26 1   
    13     5     6 ar  
    14     5    31 1   
    15     6     8 ar  
    16     6    32 1   
    17     7    12 1   
    18     7    17 1   
    19     8    10 ar  
    20     8    26 1   
    21     9    12 2   
    22    10    11 ar  
    23    10    33 1   
    24    11    34 1   
    25    12    13 1   
    26    13    14 1   
    27    13    35 1   
    28    14    15 1   
    29    14    16 1   
    30    14    36 1   
    31    15    37 1   
    32    15    38 1   
    33    15    39 1   
    34    16    40 1   
    35    16    41 1   
    36    16    42 1   
    37    17    18 1   
    38    17    23 1   
    39    17    43 1   
    40    18    19 1   
    41    18    44 1   
    42    18    45 1   
    43    19    20 1   
    44    19    46 1   
    45    19    47 1   
    46    20    21 1   
    47    20    22 1   
    48    21    48 1   
    49    21    49 1   
    50    21    50 1   
    51    22    23 2   
    52    23    24 1   
    53    24    25 2   
    54    26    51 1   
    55    26    52 1   
@<TRIPOS>SUBSTRUCTURE
     1 57R         1 TEMP              0 ****  ****    0 ROOT
