@<TRIPOS>MOLECULE
57R
   53    55     1     0     0
SMALL
abcg2


@<TRIPOS>ATOM
      1 O1           0.3230     3.3530     1.3000 oh         1 57R      -0.652000
      2 C1           6.2450    -3.4900     0.1190 c3         1 57R       0.147900
      3 C2           4.7160    -1.7170     0.5010 ca         1 57R       0.156100
      4 N1           0.8240     1.1800    -0.7900 na         1 57R       0.144800
      5 C3           4.6990    -1.3490    -0.8410 ca         1 57R      -0.175500
      6 C4           3.8930    -0.2930    -1.2540 ca         1 57R      -0.042500
      7 O2          -3.3260     0.2810     0.4370 os         1 57R      -0.460100
      8 C5           3.1090     0.4120    -0.3570 ca         1 57R      -0.147300
      9 O3          -3.9900    -0.5970    -1.5370 o          1 57R      -0.532000
     10 C6           3.1430     0.0410     0.9870 ca         1 57R      -0.042500
     11 C7           3.9310    -1.0080     1.4160 ca         1 57R      -0.175500
     12 C16         -3.8730    -0.6780    -0.3320 c          1 57R       0.648100
     13 N4          -4.2990    -1.7010     0.4270 ns         1 57R      -0.495900
     14 C17         -4.7820    -2.9490    -0.1430 c3         1 57R       0.125700
     15 C18         -3.6280    -3.8900    -0.4690 c3         1 57R      -0.111100
     16 C19         -5.7720    -3.5870     0.8190 c3         1 57R      -0.111100
     17 C13         -2.7070     1.3850    -0.2150 c6         1 57R       0.184000
     18 C14         -2.6680     2.5600     0.7540 c6         1 57R      -0.078400
     19 C15         -1.8190     3.6820     0.1650 c6         1 57R      -0.096400
     20 C10         -0.3210     3.3370     0.0380 c6         1 57R       0.260300
     21 C9           0.3320     4.3210    -0.9320 c3         1 57R      -0.126100
     22 C11         -0.2460     1.9190    -0.4350 cc         1 57R      -0.178300
     23 C12         -1.2990     1.0540    -0.5800 cd         1 57R       0.182300
     24 N3          -0.8290    -0.1250    -1.0240 nd         1 57R      -0.337000
     25 N2           0.4520    -0.0380    -1.1450 nc         1 57R      -0.190800
     26 C8           2.2380     1.5460    -0.8100 c3         1 57R       0.141900
     27 H1           0.3590     4.2660     1.6070 ho         1 57R       0.446000
     28 H2           5.6450    -3.9710    -0.6580 h1         1 57R       0.042033
     29 H3           7.0210    -2.8850    -0.3590 h1         1 57R       0.042033
     30 H4           6.7240    -4.2600     0.7190 h1         1 57R       0.042033
     31 H5           5.2960    -1.8680    -1.5780 ha         1 57R       0.124500
     32 H6           3.8840    -0.0240    -2.3040 ha         1 57R       0.117500
     33 H7           2.5410     0.5780     1.7110 ha         1 57R       0.117500
     34 H8           3.9490    -1.2870     2.4620 ha         1 57R       0.124500
     35 H9          -4.0400    -1.7070     1.4020 hn         1 57R       0.319500
     36 H10         -5.3060    -2.6980    -1.0670 h1         1 57R       0.077700
     37 H11         -3.9920    -4.7930    -0.9620 hc         1 57R       0.042700
     38 H12         -2.9070    -3.4130    -1.1340 hc         1 57R       0.042700
     39 H13         -3.1060    -4.1920     0.4410 hc         1 57R       0.042700
     40 H14         -6.6230    -2.9340     1.0080 hc         1 57R       0.042700
     41 H15         -6.1470    -4.5230     0.4060 hc         1 57R       0.042700
     42 H16         -5.2950    -3.8160     1.7750 hc         1 57R       0.042700
     43 H17         -3.2840     1.6660    -1.1010 h1         1 57R       0.079700
     44 H18         -3.6800     2.9200     0.9420 hc         1 57R       0.065200
     45 H19         -2.2500     2.2370     1.7120 hc         1 57R       0.065200
     46 H20         -2.2090     3.9440    -0.8240 hc         1 57R       0.051700
     47 H21         -1.9070     4.5830     0.7760 hc         1 57R       0.051700
     48 H22          1.4160     4.2160    -0.9650 hc         1 57R       0.048700
     49 H23         -0.0540     4.1890    -1.9430 hc         1 57R       0.048700
     50 H24          0.1080     5.3460    -0.6260 hc         1 57R       0.048700
     51 H25          2.5040     1.8680    -1.8170 h1         1 57R       0.067200
     52 H26          2.3530     2.3980    -0.1440 h1         1 57R       0.067200
     53 O4           5.4490    -2.7270     1.0040 os         1 57R      -0.340100
@<TRIPOS>BOND
     1     1    20 1   
     2     1    27 1   
     3     2    28 1   
     4     2    29 1   
     5     2    30 1   
     6     2    53 1   
     7     3     5 ar  
     8     3    11 ar  
     9     3    53 1   
    10     4    22 1   
    11     4    25 1   
    12     4    26 1   
    13     5     6 ar  
    14     5    31 1   
    15     6     8 ar  
    16     6    32 1   
    17     7    12 1   
    18     7    17 1   
    19     8    10 ar  
    20     8    26 1   
    21     9    12 2   
    22    10    11 ar  
    23    10    33 1   
    24    11    34 1   
    25    12    13 1   
    26    13    14 1   
    27    13    35 1   
    28    14    15 1   
    29    14    16 1   
    30    14    36 1   
    31    15    37 1   
    32    15    38 1   
    33    15    39 1   
    34    16    40 1   
    35    16    41 1   
    36    16    42 1   
    37    17    18 1   
    38    17    23 1   
    39    17    43 1   
    40    18    19 1   
    41    18    44 1   
    42    18    45 1   
    43    19    20 1   
    44    19    46 1   
    45    19    47 1   
    46    20    21 1   
    47    20    22 1   
    48    21    48 1   
    49    21    49 1   
    50    21    50 1   
    51    22    23 2   
    52    23    24 1   
    53    24    25 2   
    54    26    51 1   
    55    26    52 1   
@<TRIPOS>SUBSTRUCTURE
     1 57R         1 TEMP              0 ****  ****    0 ROOT
