@<TRIPOS>MOLECULE
57U
   32    33     1     0     0
SMALL
No Charge or Current Charge


@<TRIPOS>ATOM
      1 C8           0.8270     0.1560     0.0880 cc         1 57U       0.595300
      2 C6          -1.5910     0.1580     0.1150 cc         1 57U      -0.123000
      3 C5          -3.0040     0.4450     0.0790 cc         1 57U      -0.117000
      4 C4          -3.5770     1.6850     0.0370 cd         1 57U      -0.159000
      5 C3          -4.9770     1.5160     0.0050 cd         1 57U      -0.185000
      6 C2          -5.2740     0.1780     0.0110 cc         1 57U      -0.189000
      7 N1          -4.0410    -0.4830     0.0430 na         1 57U      -0.091000
      8 C10         -1.0130    -1.1010     0.2380 cd         1 57U       0.298300
      9 C14          3.2500    -0.3510     0.0750 c          1 57U       0.661100
     10 C11         -1.7060    -2.4460     0.4500 c3         1 57U       0.126300
     11 O18          3.2170    -1.5650     0.1770 o          1 57U      -0.572100
     12 N15          4.4250     0.3480    -0.0100 ns         1 57U      -0.531900
     13 C16          5.7480    -0.2740     0.0110 c3         1 57U       0.120000
     14 C17          6.8650     0.7750    -0.1020 c3         1 57U      -0.114100
     15 N13          2.1630     0.4750     0.0310 ns         1 57U      -0.500400
     16 S7          -0.3840     1.4060     0.0170 ss         1 57U      -0.087400
     17 N9           0.3790    -1.0810     0.2180 nd         1 57U      -0.646000
     18 O12         -2.5420    -2.8540    -0.6540 oh         1 57U      -0.671000
     19 H1          -3.0520     2.6350     0.0380 ha         1 57U       0.131000
     20 H2          -5.7080     2.3200    -0.0270 ha         1 57U       0.132000
     21 H3          -6.2230    -0.3450    -0.0190 h4         1 57U       0.145000
     22 H4          -3.9070    -1.4910    -0.0160 hn         1 57U       0.369000
     23 H5          -0.9320    -3.2060     0.6280 h1         1 57U       0.047200
     24 H6          -2.2990    -2.3840     1.3720 h1         1 57U       0.047200
     25 H7           4.3700     1.3550    -0.0930 hn         1 57U       0.309500
     26 H8           5.8640    -0.8340     0.9490 h1         1 57U       0.053200
     27 H9           5.8240    -0.9820    -0.8260 h1         1 57U       0.053200
     28 H10          7.8470     0.2870    -0.0840 hc         1 57U       0.043033
     29 H11          6.7780     1.3350    -1.0400 hc         1 57U       0.043033
     30 H12          6.8180     1.4830     0.7340 hc         1 57U       0.043033
     31 H13          2.3780     1.4540    -0.0580 hn         1 57U       0.321500
     32 H14         -2.6350    -3.8340    -0.6010 ho         1 57U       0.448000
@<TRIPOS>BOND
     1     1    15 1   
     2     1    16 1   
     3     1    17 2   
     4     2     3 1   
     5     2     8 2   
     6     2    16 1   
     7     3     4 2   
     8     3     7 1   
     9     4     5 1   
    10     4    19 1   
    11     5     6 2   
    12     5    20 1   
    13     6     7 1   
    14     6    21 1   
    15     7    22 1   
    16     8    10 1   
    17     8    17 1   
    18     9    11 2   
    19     9    12 1   
    20     9    15 1   
    21    10    18 1   
    22    10    23 1   
    23    10    24 1   
    24    12    13 1   
    25    12    25 1   
    26    13    14 1   
    27    13    26 1   
    28    13    27 1   
    29    14    28 1   
    30    14    29 1   
    31    14    30 1   
    32    15    31 1   
    33    18    32 1   
@<TRIPOS>SUBSTRUCTURE
     1 57U         1 TEMP              0 ****  ****    0 ROOT
