@<TRIPOS>MOLECULE
57U
   32    33     1     0     0
SMALL
bcc


@<TRIPOS>ATOM
      1 C8           0.8420     0.1480     0.1130 cc         1 57U       0.595300
      2 C6          -1.5960     0.1220     0.1060 cc         1 57U      -0.043400
      3 C5          -3.0000     0.4530     0.0290 cc         1 57U      -0.066300
      4 C4          -3.6530     1.6440     0.2860 cd         1 57U      -0.177000
      5 C3          -5.0300     1.4240     0.0580 cd         1 57U      -0.203000
      6 C2          -5.1730     0.1130    -0.3320 cc         1 57U      -0.156300
      7 N1          -3.9440    -0.4580    -0.3450 na         1 57U      -0.142100
      8 C10         -0.9730    -1.0610     0.3830 cd         1 57U       0.363600
      9 C14          3.2600    -0.2950     0.0130 c          1 57U       0.795100
     10 C11         -1.6730    -2.3430     0.7030 c3         1 57U       0.103100
     11 O18          3.1770    -1.5080     0.0090 o          1 57U      -0.572100
     12 N15          4.4270     0.3750    -0.0210 ns         1 57U      -0.598900
     13 C16          5.7000    -0.3120    -0.1210 c3         1 57U       0.120000
     14 C17          6.8370     0.6910    -0.0950 c3         1 57U      -0.114100
     15 N13          2.1510     0.5460     0.0570 ns         1 57U      -0.567400
     16 S7          -0.3940     1.3350    -0.1960 ss         1 57U      -0.232300
     17 N9           0.3960    -1.0310     0.3820 nd         1 57U      -0.646000
     18 O12         -2.2810    -2.8520    -0.4750 oh         1 57U      -0.608800
     19 H1          -3.1890     2.5590     0.6210 ha         1 57U       0.149000
     20 H2          -5.8270     2.1420     0.1710 ha         1 57U       0.150000
     21 H3          -6.0510    -0.4500    -0.6010 h4         1 57U       0.163000
     22 H4          -3.7250    -1.4060    -0.6290 hn         1 57U       0.318700
     23 H5          -0.9390    -3.0460     1.1060 h1         1 57U       0.047200
     24 H6          -2.4220    -2.1690     1.4850 h1         1 57U       0.047200
     25 H7           4.4350     1.3810    -0.0610 hn         1 57U       0.309500
     26 H8           5.8050    -1.0150     0.7080 h1         1 57U       0.053200
     27 H9           5.7420    -0.8990    -1.0430 h1         1 57U       0.053200
     28 H10          7.7910     0.1720    -0.1620 hc         1 57U       0.043033
     29 H11          6.7750     1.3850    -0.9350 hc         1 57U       0.043033
     30 H12          6.8350     1.2700     0.8300 hc         1 57U       0.043033
     31 H13          2.3130     1.5390    -0.0140 hn         1 57U       0.321500
     32 H14         -2.7280    -3.6740    -0.2460 ho         1 57U       0.409000
@<TRIPOS>BOND
     1     1    15 1   
     2     1    16 1   
     3     1    17 2   
     4     2     3 1   
     5     2     8 2   
     6     2    16 1   
     7     3     4 2   
     8     3     7 1   
     9     4     5 1   
    10     4    19 1   
    11     5     6 2   
    12     5    20 1   
    13     6     7 1   
    14     6    21 1   
    15     7    22 1   
    16     8    10 1   
    17     8    17 1   
    18     9    11 2   
    19     9    12 1   
    20     9    15 1   
    21    10    18 1   
    22    10    23 1   
    23    10    24 1   
    24    12    13 1   
    25    12    25 1   
    26    13    14 1   
    27    13    26 1   
    28    13    27 1   
    29    14    28 1   
    30    14    29 1   
    31    14    30 1   
    32    15    31 1   
    33    18    32 1   
@<TRIPOS>SUBSTRUCTURE
     1 57U         1 TEMP              0 ****  ****    0 ROOT
