@<TRIPOS>MOLECULE
57V
   41    43     1     0     0
SMALL
No Charge or Current Charge


@<TRIPOS>ATOM
      1 O            3.2140    -1.7890    -0.0240 o          1 57V      -0.573100
      2 C1           7.5240    -1.2550     0.0180 c3         1 57V      -0.114100
      3 C8          -2.7340    -2.7180    -0.0280 ca         1 57V      -0.106800
      4 C7          -1.5850    -1.7670    -0.1110 ce         1 57V      -0.119200
      5 C5          -0.3890     0.4570     0.1550 cd         1 57V       0.387800
      6 C4           1.8110     0.7920     0.1590 cc         1 57V       0.621300
      7 C3           3.7730    -0.7080     0.0540 c          1 57V       0.662100
      8 C2           6.0590    -1.7180    -0.0150 c3         1 57V       0.120000
      9 N1           5.1370    -0.5850     0.0640 ns         1 57V      -0.530900
     10 C9          -2.5380    -4.0780    -0.3340 ca         1 57V      -0.061000
     11 C10         -3.6340    -4.9520    -0.2490 ca         1 57V      -0.166000
     12 C14         -1.4820     2.7520    -0.0290 cc         1 57V      -0.110000
     13 N2           3.1520     0.5050     0.1380 ns         1 57V      -0.502400
     14 C13         -0.3650     1.8460     0.1270 cc         1 57V      -0.145000
     15 C12         -4.0330    -2.3020     0.3480 ca         1 57V       0.347900
     16 C11         -4.8870    -4.4470     0.1350 ca         1 57V       0.336900
     17 S            1.2640     2.4410     0.2690 ss         1 57V      -0.147400
     18 N5          -1.3540     4.1380     0.0600 na         1 57V      -0.102000
     19 C17         -2.5920     4.7510    -0.1540 cc         1 57V      -0.186000
     20 C16         -3.4710     3.7330    -0.4080 cd         1 57V      -0.183000
     21 C15         -2.7920     2.4980    -0.3410 cd         1 57V      -0.144000
     22 N3           0.8670    -0.1290     0.1320 nd         1 57V      -0.657000
     23 N4          -5.0920    -3.1440     0.4300 nb         1 57V      -0.670000
     24 H1           8.1960    -2.1190    -0.0420 hc         1 57V       0.043367
     25 H2           7.7400    -0.5920    -0.8280 hc         1 57V       0.043367
     26 H3           7.7390    -0.7160     0.9490 hc         1 57V       0.043367
     27 H4          -0.6620    -2.2220    -0.4780 ha         1 57V       0.202000
     28 H5          -2.4430     0.0140     0.6120 ha         1 57V       0.187000
     29 H6           5.8700    -2.2680    -0.9470 h1         1 57V       0.053700
     30 H7           5.8690    -2.3930     0.8300 h1         1 57V       0.053700
     31 H8           5.5270     0.3460     0.1300 hn         1 57V       0.311500
     32 H9          -1.5590    -4.4520    -0.6300 ha         1 57V       0.123000
     33 H10         -3.5200    -6.0080    -0.4770 ha         1 57V       0.123000
     34 H11          3.7710     1.2970     0.1880 hn         1 57V       0.323500
     35 H12         -4.2430    -1.2620     0.5910 h4         1 57V       0.020100
     36 H13         -5.7520    -5.1050     0.2080 h4         1 57V       0.018100
     37 H14         -0.4880     4.6270     0.2610 hn         1 57V       0.346000
     38 H15         -2.7330     5.8260    -0.1230 h4         1 57V       0.146000
     39 H16         -4.5250     3.8590    -0.6420 ha         1 57V       0.135000
     40 H17         -3.2500     1.5400    -0.5540 ha         1 57V       0.138000
     41 C6          -1.5460    -0.4380     0.2040 cf         1 57V      -0.265800
@<TRIPOS>BOND
     1     1     7 2   
     2     2     8 1   
     3     2    24 1   
     4     2    25 1   
     5     2    26 1   
     6     3     4 1   
     7     3    10 ar  
     8     3    15 ar  
     9     4    27 1   
    10     4    41 2   
    11     5    14 2   
    12     5    22 1   
    13     5    41 1   
    14     6    13 1   
    15     6    17 1   
    16     6    22 2   
    17     7     9 1   
    18     7    13 1   
    19     8     9 1   
    20     8    29 1   
    21     8    30 1   
    22     9    31 1   
    23    10    11 ar  
    24    10    32 1   
    25    11    16 ar  
    26    11    33 1   
    27    12    14 1   
    28    12    18 1   
    29    12    21 2   
    30    13    34 1   
    31    14    17 1   
    32    15    23 ar  
    33    15    35 1   
    34    16    23 ar  
    35    16    36 1   
    36    18    19 1   
    37    18    37 1   
    38    19    20 2   
    39    19    38 1   
    40    20    21 1   
    41    20    39 1   
    42    21    40 1   
    43    28    41 1   
@<TRIPOS>SUBSTRUCTURE
     1 57V         1 TEMP              0 ****  ****    0 ROOT
