@<TRIPOS>MOLECULE
57V
   41    43     1     0     0
SMALL
abcg2


@<TRIPOS>ATOM
      1 O            3.2090    -1.6480     0.4980 o          1 57V      -0.573100
      2 C1           7.4350    -1.3690    -0.0440 c3         1 57V      -0.114100
      3 C8          -2.6410    -2.6470     0.0060 ca         1 57V      -0.106800
      4 C7          -1.5030    -1.7420    -0.0930 ce         1 57V      -0.119200
      5 C5          -0.3690     0.4390    -0.0590 cd         1 57V       0.387800
      6 C4           1.8050     0.7650    -0.1250 cc         1 57V       0.621300
      7 C3           3.7990    -0.6490     0.1360 c          1 57V       0.662100
      8 C2           5.9910    -1.7170     0.2590 c3         1 57V       0.120000
      9 N1           5.1330    -0.5820    -0.0210 ns         1 57V      -0.530900
     10 C9          -2.4660    -4.0090    -0.2470 ca         1 57V      -0.061000
     11 C10         -3.5480    -4.8690    -0.1580 ca         1 57V      -0.166000
     12 C14         -1.5290     2.7080    -0.1110 cc         1 57V      -0.110000
     13 N2           3.1550     0.5530    -0.1580 ns         1 57V      -0.502400
     14 C13         -0.4000     1.8110    -0.0710 cc         1 57V      -0.145000
     15 C12         -3.9340    -2.2360     0.3500 ca         1 57V       0.347900
     16 C11         -4.7840    -4.3430     0.1840 ca         1 57V       0.336900
     17 S            1.2300     2.4140    -0.1100 ss         1 57V      -0.147400
     18 N5          -1.5500     3.8930     0.5720 na         1 57V      -0.102000
     19 C17         -2.7180     4.5430     0.3450 cc         1 57V      -0.186000
     20 C16         -3.4730     3.7750    -0.5090 cd         1 57V      -0.183000
     21 C15         -2.7210     2.6160    -0.8030 cd         1 57V      -0.144000
     22 N3           0.8800    -0.1260    -0.1100 nd         1 57V      -0.657000
     23 N4          -4.9730    -3.0500     0.4350 nb         1 57V      -0.670000
     24 H1           8.0750    -2.2210     0.1750 hc         1 57V       0.043367
     25 H2           7.5710    -1.1090    -1.0950 hc         1 57V       0.043367
     26 H3           7.7780    -0.5300     0.5630 hc         1 57V       0.043367
     27 H4          -0.5460    -2.2140    -0.2900 ha         1 57V       0.202000
     28 H5          -2.4760     0.1100     0.2050 ha         1 57V       0.187000
     29 H6           5.6810    -2.5750    -0.3420 h1         1 57V       0.053700
     30 H7           5.8920    -2.0110     1.3070 h1         1 57V       0.053700
     31 H8           5.5670     0.2680    -0.3450 hn         1 57V       0.311500
     32 H9          -1.4880    -4.3870    -0.5150 ha         1 57V       0.123000
     33 H10         -3.4370    -5.9270    -0.3480 ha         1 57V       0.123000
     34 H11          3.7320     1.3600    -0.3440 hn         1 57V       0.323500
     35 H12         -4.1360    -1.1940     0.5720 h4         1 57V       0.020100
     36 H13         -5.6530    -4.9860     0.2600 h4         1 57V       0.018100
     37 H14         -0.8360     4.2120     1.2080 hn         1 57V       0.346000
     38 H15         -2.9230     5.4950     0.8040 h4         1 57V       0.146000
     39 H16         -4.4510     4.0250    -0.8880 ha         1 57V       0.135000
     40 H17         -2.9960     1.8170    -1.4740 ha         1 57V       0.138000
     41 C6          -1.5410    -0.4060     0.0250 cf         1 57V      -0.265800
@<TRIPOS>BOND
     1     1     7 2   
     2     2     8 1   
     3     2    24 1   
     4     2    25 1   
     5     2    26 1   
     6     3     4 1   
     7     3    10 ar  
     8     3    15 ar  
     9     4    27 1   
    10     4    41 2   
    11     5    14 2   
    12     5    22 1   
    13     5    41 1   
    14     6    13 1   
    15     6    17 1   
    16     6    22 2   
    17     7     9 1   
    18     7    13 1   
    19     8     9 1   
    20     8    29 1   
    21     8    30 1   
    22     9    31 1   
    23    10    11 ar  
    24    10    32 1   
    25    11    16 ar  
    26    11    33 1   
    27    12    14 1   
    28    12    18 1   
    29    12    21 2   
    30    13    34 1   
    31    14    17 1   
    32    15    23 ar  
    33    15    35 1   
    34    16    23 ar  
    35    16    36 1   
    36    18    19 1   
    37    18    37 1   
    38    19    20 2   
    39    19    38 1   
    40    20    21 1   
    41    20    39 1   
    42    21    40 1   
    43    28    41 1   
@<TRIPOS>SUBSTRUCTURE
     1 57V         1 TEMP              0 ****  ****    0 ROOT
