@<TRIPOS>MOLECULE
57W
   45    48     1     0     0
SMALL
bcc


@<TRIPOS>ATOM
      1 O            4.5990    -0.2940    -0.0260 o          1 57W      -0.641100
      2 C1           7.2480     3.0200     0.2500 c3         1 57W      -0.110100
      3 C8          -1.2380     2.2140     0.1410 ca         1 57W       0.393200
      4 C7           0.4990     0.7870     0.0670 ca         1 57W       0.372100
      5 C6          -0.3370    -0.3440     0.0230 ca         1 57W      -0.109500
      6 C5           1.8090    -1.0250    -0.0250 cc         1 57W      -0.124100
      7 C4           1.8570     0.3330     0.0330 cd         1 57W      -0.067200
      8 C3           4.2350     0.8750     0.0070 c          1 57W       0.789100
      9 C2           6.5150     1.7550    -0.1550 c3         1 57W       0.114000
     10 N1           5.0870     1.9250     0.0220 ns         1 57W      -0.582900
     11 C9          -2.1690     1.1610     0.0920 cp         1 57W      -0.145300
     12 C10         -1.7120    -0.1510     0.0300 ca         1 57W      -0.064000
     13 C14         -5.5160     2.7650    -0.5290 ca         1 57W      -0.246300
     14 N2           2.9100     1.2220     0.0540 ns         1 57W      -0.471100
     15 C13         -6.3070     1.8890     0.1980 ca         1 57W       0.401200
     16 C12         -4.5030     0.6470     0.8160 ca         1 57W       0.412200
     17 C11         -3.6110     1.4540     0.1070 cp         1 57W      -0.145300
     18 N4           0.0690     2.0410     0.1270 nb         1 57W      -0.644000
     19 C15         -4.1510     2.5410    -0.5780 ca         1 57W      -0.084000
     20 N5          -5.8110     0.8490     0.8610 nb         1 57W      -0.666000
     21 N3           0.4790    -1.4530    -0.0340 na         1 57W      -0.092200
     22 C16          0.0840    -2.7910    -0.0790 ca         1 57W       0.539800
     23 N6          -1.2180    -3.0150    -0.1250 nb         1 57W      -0.722000
     24 C20         -1.6520    -4.2690    -0.1690 ca         1 57W       0.440200
     25 C19         -0.8120    -5.3670    -0.1720 ca         1 57W      -0.271300
     26 C18          0.5550    -5.1250    -0.1230 ca         1 57W      -0.066000
     27 C17          1.0230    -3.8270    -0.0740 ca         1 57W      -0.266300
     28 H1           6.9270     3.8770    -0.3450 hc         1 57W       0.042033
     29 H2           7.0810     3.2550     1.3020 hc         1 57W       0.042033
     30 H3           8.3190     2.8970     0.0970 hc         1 57W       0.042033
     31 H4          -1.5890     3.2380     0.2090 h4         1 57W       0.020100
     32 H5           2.6180    -1.7270    -0.0640 h4         1 57W       0.198000
     33 H6           6.7540     1.5020    -1.1930 h1         1 57W       0.051700
     34 H7           6.8510     0.9210     0.4610 h1         1 57W       0.051700
     35 H8           4.7180     2.8490    -0.1400 hn         1 57W       0.307500
     36 H9          -2.3990    -0.9800    -0.0330 ha         1 57W       0.171000
     37 H10         -5.9630     3.5980    -1.0530 ha         1 57W       0.142000
     38 H11          2.6510     2.1960     0.1170 hn         1 57W       0.338500
     39 H12         -7.3800     2.0310     0.2490 h4         1 57W       0.019100
     40 H13         -4.1300    -0.1970     1.3880 h4         1 57W       0.023100
     41 H14         -3.5130     3.1960    -1.1590 ha         1 57W       0.139000
     42 H15         -2.7280    -4.3970    -0.2030 h4         1 57W       0.023100
     43 H16         -1.2120    -6.3700    -0.2100 ha         1 57W       0.148000
     44 H17          1.2610    -5.9450    -0.1210 ha         1 57W       0.142000
     45 H18          2.0860    -3.6480    -0.0320 ha         1 57W       0.156000
@<TRIPOS>BOND
     1     1     8 2   
     2     2     9 1   
     3     2    28 1   
     4     2    29 1   
     5     2    30 1   
     6     3    11 ar  
     7     3    18 ar  
     8     3    31 1   
     9     4     5 ar  
    10     4     7 1   
    11     4    18 ar  
    12     5    12 ar  
    13     5    21 1   
    14     6     7 2   
    15     6    21 1   
    16     6    32 1   
    17     7    14 1   
    18     8    10 1   
    19     8    14 1   
    20     9    10 1   
    21     9    33 1   
    22     9    34 1   
    23    10    35 1   
    24    11    12 ar  
    25    11    17 1   
    26    12    36 1   
    27    13    15 ar  
    28    13    19 ar  
    29    13    37 1   
    30    14    38 1   
    31    15    20 ar  
    32    15    39 1   
    33    16    17 ar  
    34    16    20 ar  
    35    16    40 1   
    36    17    19 ar  
    37    19    41 1   
    38    21    22 1   
    39    22    23 ar  
    40    22    27 ar  
    41    23    24 ar  
    42    24    25 ar  
    43    24    42 1   
    44    25    26 ar  
    45    25    43 1   
    46    26    27 ar  
    47    26    44 1   
    48    27    45 1   
@<TRIPOS>SUBSTRUCTURE
     1 57W         1 TEMP              0 ****  ****    0 ROOT
