@<TRIPOS>MOLECULE
57W
   45    48     1     0     0
SMALL
No Charge or Current Charge


@<TRIPOS>ATOM
      1 O            4.7540    -0.3870    -0.2580 o          1 57W      -0.641100
      2 C1           7.2780     3.1480    -0.0290 c3         1 57W      -0.110100
      3 C8          -1.2200     2.2390     0.2020 ca         1 57W       0.327900
      4 C7           0.5290     0.7910    -0.0020 ca         1 57W       0.306800
      5 C6          -0.2880    -0.3020    -0.0720 ca         1 57W      -0.044200
      6 C5           1.8860    -1.1080    -0.2260 cc         1 57W      -0.174100
      7 C4           1.8840     0.2780    -0.0980 cd         1 57W      -0.067200
      8 C3           4.3380     0.7540    -0.1400 c          1 57W       0.655100
      9 C2           6.6280     1.7590    -0.1290 c3         1 57W       0.114000
     10 N1           5.1700     1.8420    -0.0710 ns         1 57W      -0.515900
     11 C9          -2.1790     1.1730     0.1400 cp         1 57W      -0.080000
     12 C10         -1.6780    -0.1540    -0.0020 ca         1 57W      -0.046000
     13 C14         -5.5970     2.8610    -0.1310 ca         1 57W      -0.163000
     14 N2           3.0070     1.0990    -0.0630 ns         1 57W      -0.404100
     15 C13         -6.3970     1.8540     0.4320 ca         1 57W       0.335900
     16 C12         -4.5540     0.4930     0.7770 ca         1 57W       0.346900
     17 C11         -3.6520     1.4430     0.2260 cp         1 57W      -0.080000
     18 N4           0.1280     2.0680     0.1340 nb         1 57W      -0.644000
     19 C15         -4.2120     2.6600    -0.2370 ca         1 57W      -0.066000
     20 N5          -5.8920     0.6840     0.8830 nb         1 57W      -0.666000
     21 N3           0.5110    -1.4320    -0.2080 na         1 57W      -0.092200
     22 C16          0.0460    -2.7470    -0.2840 ca         1 57W       0.474500
     23 N6          -0.8320    -3.1580    -1.2340 nb         1 57W      -0.722000
     24 C20         -1.2330    -4.4500    -1.2440 ca         1 57W       0.374900
     25 C19         -0.7820    -5.3950    -0.3120 ca         1 57W      -0.188000
     26 C18          0.1240    -4.9920     0.6770 ca         1 57W      -0.048000
     27 C17          0.5370    -3.6510     0.6830 ca         1 57W      -0.183000
     28 H1           6.9500     3.7900    -0.8550 hc         1 57W       0.042033
     29 H2           7.0110     3.6330     0.9180 hc         1 57W       0.042033
     30 H3           8.3690     3.0600    -0.0740 hc         1 57W       0.042033
     31 H4          -1.5510     3.2690     0.3250 h4         1 57W       0.020100
     32 H5           2.6840    -1.8380    -0.3240 h4         1 57W       0.248000
     33 H6           6.9210     1.2850    -1.0760 h1         1 57W       0.051700
     34 H7           6.9830     1.1270     0.6970 h1         1 57W       0.051700
     35 H8           4.7450     2.7550     0.0260 hn         1 57W       0.307500
     36 H9          -2.3370    -1.0160    -0.0690 ha         1 57W       0.153000
     37 H10         -6.0530     3.7830    -0.4820 ha         1 57W       0.124000
     38 H11          2.8480     2.0940     0.0330 hn         1 57W       0.338500
     39 H12         -7.4740     1.9860     0.5240 h4         1 57W       0.019100
     40 H13         -4.1870    -0.4570     1.1640 h4         1 57W       0.023100
     41 H14         -3.5890     3.4310    -0.6840 ha         1 57W       0.121000
     42 H15         -1.9380    -4.7340    -2.0250 h4         1 57W       0.023100
     43 H16         -1.1340    -6.4210    -0.3630 ha         1 57W       0.130000
     44 H17          0.4950    -5.6970     1.4190 ha         1 57W       0.124000
     45 H18          1.2340    -3.3070     1.4420 ha         1 57W       0.138000
@<TRIPOS>BOND
     1     1     8 2   
     2     2     9 1   
     3     2    28 1   
     4     2    29 1   
     5     2    30 1   
     6     3    11 ar  
     7     3    18 ar  
     8     3    31 1   
     9     4     5 ar  
    10     4     7 1   
    11     4    18 ar  
    12     5    12 ar  
    13     5    21 1   
    14     6     7 2   
    15     6    21 1   
    16     6    32 1   
    17     7    14 1   
    18     8    10 1   
    19     8    14 1   
    20     9    10 1   
    21     9    33 1   
    22     9    34 1   
    23    10    35 1   
    24    11    12 ar  
    25    11    17 1   
    26    12    36 1   
    27    13    15 ar  
    28    13    19 ar  
    29    13    37 1   
    30    14    38 1   
    31    15    20 ar  
    32    15    39 1   
    33    16    17 ar  
    34    16    20 ar  
    35    16    40 1   
    36    17    19 ar  
    37    19    41 1   
    38    21    22 1   
    39    22    23 ar  
    40    22    27 ar  
    41    23    24 ar  
    42    24    25 ar  
    43    24    42 1   
    44    25    26 ar  
    45    25    43 1   
    46    26    27 ar  
    47    26    44 1   
    48    27    45 1   
@<TRIPOS>SUBSTRUCTURE
     1 57W         1 TEMP              0 ****  ****    0 ROOT
