@<TRIPOS>MOLECULE
57X
   39    42     1     0     0
SMALL
No Charge or Current Charge


@<TRIPOS>ATOM
      1 C1          -2.5390    -2.4550    -0.2780 cc         1 57X      -0.334200
      2 C6          -1.3950    -1.6730    -0.2260 cd         1 57X      -0.019200
      3 C5          -1.6050    -0.2510    -0.1940 cd         1 57X      -0.249800
      4 C4          -2.8640     0.2400    -0.2170 cc         1 57X       0.052600
      5 C2          -3.9220    -1.9260    -0.3020 c          1 57X       0.574200
      6 C9          -0.7110     0.8550    -0.1400 cd         1 57X       0.393500
      7 C10          0.7280     0.8090    -0.1000 cd         1 57X      -0.281500
      8 C14          1.4630     1.9690    -0.0490 cc         1 57X       0.314900
      9 C12          3.1330     0.5090    -0.0390 cd         1 57X       0.494900
     10 O24         -4.8950    -2.6660    -0.3440 o          1 57X      -0.541000
     11 N3          -4.0250    -0.5150    -0.2690 n          1 57X      -0.277000
     12 C21         -5.3630     0.1210    -0.2990 c3         1 57X       0.085000
     13 C22         -5.8670     0.5210     1.1040 c3         1 57X      -0.098400
     14 C23         -7.2500     1.2000     1.0760 c3         1 57X      -0.090100
     15 N7          -2.7060     1.6190    -0.1770 na         1 57X      -0.035200
     16 N8          -1.3700     2.0070    -0.1290 nc         1 57X      -0.497800
     17 N13          2.8260     1.8010    -0.0140 nc         1 57X      -0.647000
     18 S11          1.7640    -0.6050    -0.1070 ss         1 57X       0.000600
     19 C15          4.5330     0.0450    -0.0110 ca         1 57X      -0.189500
     20 C20          5.6110     0.9570     0.0440 ca         1 57X      -0.031000
     21 C19          6.9200     0.4500     0.0680 ca         1 57X      -0.169000
     22 C18          7.1180    -0.9380     0.0380 ca         1 57X       0.346900
     23 N17          6.0950    -1.8210    -0.0150 nb         1 57X      -0.664000
     24 C16          4.8340    -1.3320    -0.0380 ca         1 57X       0.350900
     25 H1          -2.4730    -3.5360    -0.3030 ha         1 57X       0.213000
     26 H2          -0.4140    -2.1350    -0.2100 ha         1 57X       0.195000
     27 H3           1.0790     2.9820    -0.0340 h4         1 57X       0.055100
     28 H4          -5.3160     1.0150    -0.9350 h1         1 57X       0.064700
     29 H5          -6.0910    -0.5560    -0.7660 h1         1 57X       0.064700
     30 H6          -5.9210    -0.3760     1.7350 hc         1 57X       0.053200
     31 H7          -5.1440     1.1980     1.5750 hc         1 57X       0.053200
     32 H8          -8.0030     0.5310     0.6440 hc         1 57X       0.038033
     33 H9          -7.5680     1.4630     2.0930 hc         1 57X       0.038033
     34 H10         -7.2190     2.1200     0.4790 hc         1 57X       0.038033
     35 H11         -3.4560     2.3060    -0.1800 hn         1 57X       0.384000
     36 H12          5.4450     2.0330     0.0670 ha         1 57X       0.143000
     37 H13          7.7740     1.1200     0.1100 ha         1 57X       0.128000
     38 H14          8.1230    -1.3570     0.0550 h4         1 57X       0.022100
     39 H15          4.0480    -2.0840    -0.0800 h4         1 57X       0.019100
@<TRIPOS>BOND
     1     1     2 2   
     2     1     5 1   
     3     1    25 1   
     4     2     3 1   
     5     2    26 1   
     6     3     4 2   
     7     3     6 1   
     8     4    11 1   
     9     4    15 1   
    10     5    10 2   
    11     5    11 1   
    12     6     7 1   
    13     6    16 2   
    14     7     8 2   
    15     7    18 1   
    16     8    17 1   
    17     8    27 1   
    18     9    17 2   
    19     9    18 1   
    20     9    19 1   
    21    11    12 1   
    22    12    13 1   
    23    12    28 1   
    24    12    29 1   
    25    13    14 1   
    26    13    30 1   
    27    13    31 1   
    28    14    32 1   
    29    14    33 1   
    30    14    34 1   
    31    15    16 1   
    32    15    35 1   
    33    19    20 ar  
    34    19    24 ar  
    35    20    21 ar  
    36    20    36 1   
    37    21    22 ar  
    38    21    37 1   
    39    22    23 ar  
    40    22    38 1   
    41    23    24 ar  
    42    24    39 1   
@<TRIPOS>SUBSTRUCTURE
     1 57X         1 TEMP              0 ****  ****    0 ROOT
