@<TRIPOS>MOLECULE
57X
   39    42     1     0     0
SMALL
bcc


@<TRIPOS>ATOM
      1 C1          -2.5810    -2.4060    -0.5590 cc         1 57X      -0.284200
      2 C6          -1.4520    -1.6630    -0.4720 cd         1 57X       0.030800
      3 C5          -1.5760    -0.2660    -0.2840 cd         1 57X      -0.315100
      4 C4          -2.8550     0.2680    -0.2240 cc         1 57X       0.103300
      5 C2          -3.9170    -1.8400    -0.4720 c          1 57X       0.716700
      6 C9          -0.7280     0.8660    -0.1460 cd         1 57X       0.458800
      7 C10          0.7180     0.9330    -0.1680 cd         1 57X      -0.201900
      8 C14          1.5070     2.0150    -0.4410 cc         1 57X       0.380200
      9 C12          3.1230     0.5740    -0.0650 cd         1 57X       0.494900
     10 O24         -4.9400    -2.5080    -0.5260 o          1 57X      -0.616500
     11 N3          -3.9940    -0.4540    -0.3300 n          1 57X      -0.344000
     12 C21         -5.2950     0.2020    -0.2400 c3         1 57X       0.085000
     13 C22         -5.7790     0.3540     1.1960 c3         1 57X      -0.098400
     14 C23         -7.1100     1.0900     1.2490 c3         1 57X      -0.090100
     15 N7          -2.7230     1.5910    -0.0650 na         1 57X      -0.035600
     16 N8          -1.4370     1.9660    -0.0090 nc         1 57X      -0.497800
     17 N13          2.8420     1.8020    -0.3780 nc         1 57X      -0.647000
     18 S11          1.7250    -0.4150     0.1900 ss         1 57X      -0.144300
     19 C15          4.4830     0.0610     0.0660 ca         1 57X      -0.254800
     20 C20          5.5740     0.9040    -0.1390 ca         1 57X      -0.049000
     21 C19          6.8500     0.3900    -0.0070 ca         1 57X      -0.252300
     22 C18          6.9980    -0.9490     0.3270 ca         1 57X       0.412200
     23 N17          5.9670    -1.7640     0.5250 nb         1 57X      -0.664000
     24 C16          4.7470    -1.2680     0.3960 ca         1 57X       0.416200
     25 H1          -2.5300    -3.4760    -0.6980 ha         1 57X       0.163000
     26 H2          -0.4840    -2.1420    -0.5500 ha         1 57X       0.145000
     27 H3           1.1280     2.9910    -0.7060 h4         1 57X       0.055100
     28 H4          -5.2200     1.1730    -0.7350 h1         1 57X       0.064700
     29 H5          -6.0040    -0.3840    -0.8210 h1         1 57X       0.064700
     30 H6          -5.8800    -0.6350     1.6460 hc         1 57X       0.053200
     31 H7          -5.0350     0.8940     1.7870 hc         1 57X       0.053200
     32 H8          -7.8770     0.5650     0.6770 hc         1 57X       0.038033
     33 H9          -7.4650     1.1760     2.2760 hc         1 57X       0.038033
     34 H10         -7.0240     2.0990     0.8430 hc         1 57X       0.038033
     35 H11         -3.4410     2.2910     0.0390 hn         1 57X       0.333700
     36 H12          5.4210     1.9440    -0.3950 ha         1 57X       0.161000
     37 H13          7.7200     1.0130    -0.1600 ha         1 57X       0.146000
     38 H14          7.9860    -1.3800     0.4400 h4         1 57X       0.022100
     39 H15          3.9350    -1.9690     0.5640 h4         1 57X       0.019100
@<TRIPOS>BOND
     1     1     2 2   
     2     1     5 1   
     3     1    25 1   
     4     2     3 1   
     5     2    26 1   
     6     3     4 2   
     7     3     6 1   
     8     4    11 1   
     9     4    15 1   
    10     5    10 2   
    11     5    11 1   
    12     6     7 1   
    13     6    16 2   
    14     7     8 2   
    15     7    18 1   
    16     8    17 1   
    17     8    27 1   
    18     9    17 2   
    19     9    18 1   
    20     9    19 1   
    21    11    12 1   
    22    12    13 1   
    23    12    28 1   
    24    12    29 1   
    25    13    14 1   
    26    13    30 1   
    27    13    31 1   
    28    14    32 1   
    29    14    33 1   
    30    14    34 1   
    31    15    16 1   
    32    15    35 1   
    33    19    20 ar  
    34    19    24 ar  
    35    20    21 ar  
    36    20    36 1   
    37    21    22 ar  
    38    21    37 1   
    39    22    23 ar  
    40    22    38 1   
    41    23    24 ar  
    42    24    39 1   
@<TRIPOS>SUBSTRUCTURE
     1 57X         1 TEMP              0 ****  ****    0 ROOT
