@<TRIPOS>MOLECULE
57Y
   43    46     1     0     0
SMALL
bcc


@<TRIPOS>ATOM
      1 C20         -2.6630     1.5970     0.4530 ca         1 57Y      -0.033000
      2 C21         -3.7530     2.4070     0.5710 ca         1 57Y      -0.173000
      3 C15          4.1800    -1.3710     0.3280 ca         1 57Y      -0.153000
      4 C18          3.5680     0.8550    -0.2940 ca         1 57Y       0.338200
      5 C10          0.0420    -2.1980     0.1610 cc         1 57Y       0.369200
      6 C19         -2.8690     0.2800    -0.0060 ca         1 57Y      -0.166000
      7 C14          3.1860    -0.4550     0.0140 ca         1 57Y      -0.260800
      8 C4          -5.3140     0.6780    -0.2030 ca         1 57Y      -0.174300
      9 C5          -4.1810    -0.1670    -0.3170 ca         1 57Y      -0.026000
     10 C22         -5.0670     1.9530     0.2490 ca         1 57Y       0.158100
     11 C16          5.5100    -0.9570     0.3250 ca         1 57Y       0.094800
     12 C8          -2.0560    -0.8330    -0.2460 cd         1 57Y       0.028700
     13 C9          -0.6390    -1.0410    -0.1050 cd         1 57Y      -0.170200
     14 CA           5.7890     0.3860    -0.0060 ca         1 57Y       0.256800
     15 C12          1.7880    -0.8700     0.0040 cd         1 57Y       0.552900
     16 C            7.2240     0.8680    -0.0350 c          1 57Y       0.830100
     17 C1          -8.7650    -0.9840     0.3830 c3         1 57Y      -0.089100
     18 C3          -6.6860     0.1520    -0.5110 c3         1 57Y      -0.015100
     19 C2          -7.3790    -0.4500     0.7140 c3         1 57Y      -0.077400
     20 N            4.8250     1.2480    -0.3020 nb         1 57Y      -0.601000
     21 N11          1.3900    -2.0880     0.2150 nc         1 57Y      -0.660000
     22 N7          -2.8970    -1.7960    -0.6550 na         1 57Y       0.065800
     23 N6          -4.1720    -1.4440    -0.7110 nc         1 57Y      -0.306400
     24 O            8.0860    -0.0130     0.2820 o          1 57Y      -0.774300
     25 O23         -6.0360     2.8780     0.4300 oh         1 57Y      -0.505100
     26 O17          6.4770    -1.8080     0.6280 oh         1 57Y      -0.581100
     27 OXT          7.4650     2.0300    -0.3490 o          1 57Y      -0.774300
     28 S13          0.4940     0.2420    -0.2950 ss         1 57Y      -0.138300
     29 H1          -1.6800     1.9680     0.7130 ha         1 57Y       0.145000
     30 H2          -3.6380     3.4250     0.9220 ha         1 57Y       0.143000
     31 H5          -0.4220    -3.1570     0.3420 h4         1 57Y       0.028100
     32 H6          -8.7140    -1.7740    -0.3680 hc         1 57Y       0.028367
     33 H7          -9.2540    -1.3970     1.2660 hc         1 57Y       0.028367
     34 H8          -9.4070    -0.1940    -0.0120 hc         1 57Y       0.028367
     35 H9          -7.3240     0.9300    -0.9450 hc         1 57Y       0.043200
     36 H10         -6.6060    -0.6110    -1.2890 hc         1 57Y       0.043200
     37 H11         -7.4520     0.3060     1.5010 hc         1 57Y       0.044200
     38 H12         -6.7560    -1.2530     1.1150 hc         1 57Y       0.044200
     39 H13         -2.6370    -2.7280    -0.9440 hn         1 57Y       0.321700
     40 H14         -6.8940     2.5420     0.1490 ho         1 57Y       0.424000
     41 H15          7.3300    -1.2300     0.5450 ho         1 57Y       0.515000
     42 H3           3.9310    -2.3950     0.5750 ha         1 57Y       0.150000
     43 H4           2.8280     1.6090    -0.5470 h4         1 57Y      -0.002900
@<TRIPOS>BOND
     1     1     2 ar  
     2     1     6 ar  
     3     1    29 1   
     4     2    10 ar  
     5     2    30 1   
     6     3     7 ar  
     7     3    11 ar  
     8     3    42 1   
     9     4     7 ar  
    10     4    20 ar  
    11     4    43 1   
    12     5    13 2   
    13     5    21 1   
    14     5    31 1   
    15     6     9 ar  
    16     6    12 2   
    17     7    15 1   
    18     8     9 ar  
    19     8    10 ar  
    20     8    18 1   
    21     9    23 2   
    22    10    25 1   
    23    11    14 ar  
    24    11    26 1   
    25    12    13 1   
    26    12    22 1   
    27    13    28 1   
    28    14    16 1   
    29    14    20 ar  
    30    15    21 2   
    31    15    28 1   
    32    16    24 1   
    33    16    27 1   
    34    17    19 1   
    35    17    32 1   
    36    17    33 1   
    37    17    34 1   
    38    18    19 1   
    39    18    35 1   
    40    18    36 1   
    41    19    37 1   
    42    19    38 1   
    43    22    23 1   
    44    22    39 1   
    45    25    40 1   
    46    26    41 1   
@<TRIPOS>SUBSTRUCTURE
     1 57Y         1 TEMP              0 ****  ****    0 ROOT
