@<TRIPOS>MOLECULE
57Y
   43    46     1     0     0
SMALL
No Charge or Current Charge


@<TRIPOS>ATOM
      1 C20         -2.7140     1.6490    -0.0030 ca         1 57Y      -0.015000
      2 C21         -3.8300     2.5020     0.0480 ca         1 57Y      -0.155000
      3 C15          4.2530    -1.3980     0.0040 ca         1 57Y      -0.135000
      4 C18          3.6020     0.9160     0.2580 ca         1 57Y       0.272900
      5 C10          0.0510    -2.1320    -0.3270 cc         1 57Y       0.303900
      6 C19         -2.9480     0.2810    -0.1940 ca         1 57Y      -0.166000
      7 C14          3.2260    -0.4280     0.0680 ca         1 57Y      -0.195500
      8 C4          -5.3540     0.5990    -0.2920 ca         1 57Y      -0.174300
      9 C5          -4.2270    -0.2500    -0.3350 ca         1 57Y      -0.026000
     10 C22         -5.1350     1.9880    -0.0920 ca         1 57Y       0.158100
     11 C16          5.5910    -0.9950     0.1310 ca         1 57Y       0.160100
     12 C8          -2.0510    -0.8370    -0.2840 cd         1 57Y       0.028700
     13 C9          -0.6130    -0.9330    -0.2140 cd         1 57Y      -0.249800
     14 CA           5.8880     0.3880     0.3220 ca         1 57Y       0.191500
     15 C12          1.8000    -0.7950    -0.0590 cd         1 57Y       0.552900
     16 C            7.3590     0.8460     0.4630 c          1 57Y       0.619500
     17 C1          -8.8250    -0.9140     0.7910 c3         1 57Y      -0.089100
     18 C3          -6.7670     0.0200    -0.4450 c3         1 57Y      -0.015100
     19 C2          -7.4030    -0.3330     0.9170 c3         1 57Y      -0.077400
     20 N            4.8840     1.3210     0.3820 nb         1 57Y      -0.601000
     21 N11          1.4180    -2.0580    -0.2400 nc         1 57Y      -0.660000
     22 N7          -2.8870    -1.9210    -0.4670 na         1 57Y       0.015500
     23 N6          -4.2470    -1.6470    -0.5110 nc         1 57Y      -0.306400
     24 O            8.2430    -0.0060     0.4060 o          1 57Y      -0.669000
     25 O23         -6.1830     2.8580    -0.0230 oh         1 57Y      -0.544100
     26 O17          6.5720    -1.9510     0.0670 oh         1 57Y      -0.620100
     27 OXT          7.6080     2.0360     0.6260 o          1 57Y      -0.669000
     28 S13          0.4990     0.4000     0.0170 ss         1 57Y       0.006600
     29 H1          -1.7120     2.0520     0.1070 ha         1 57Y       0.127000
     30 H2          -3.6840     3.5680     0.1990 ha         1 57Y       0.125000
     31 H5          -0.3920    -3.1080    -0.4740 h4         1 57Y       0.028100
     32 H6          -8.8160    -1.8350     0.1950 hc         1 57Y       0.028367
     33 H7          -9.2300    -1.1510     1.7820 hc         1 57Y       0.028367
     34 H8          -9.4970    -0.1940     0.3080 hc         1 57Y       0.028367
     35 H9          -7.4190     0.7190    -0.9820 hc         1 57Y       0.043200
     36 H10         -6.7450    -0.8820    -1.0690 hc         1 57Y       0.043200
     37 H11         -7.4380     0.5630     1.5490 hc         1 57Y       0.044200
     38 H12         -6.7650    -1.0610     1.4340 hc         1 57Y       0.044200
     39 H13         -2.5720    -2.8790    -0.5700 hn         1 57Y       0.372000
     40 H14         -7.0090     2.3390    -0.1010 ho         1 57Y       0.463000
     41 H15          7.4360    -1.4570     0.1780 ho         1 57Y       0.554000
     42 H3           4.0240    -2.4510    -0.1410 ha         1 57Y       0.132000
     43 H4           2.8610     1.7120     0.3160 h4         1 57Y      -0.002900
@<TRIPOS>BOND
     1     1     2 ar  
     2     1     6 ar  
     3     1    29 1   
     4     2    10 ar  
     5     2    30 1   
     6     3     7 ar  
     7     3    11 ar  
     8     3    42 1   
     9     4     7 ar  
    10     4    20 ar  
    11     4    43 1   
    12     5    13 2   
    13     5    21 1   
    14     5    31 1   
    15     6     9 ar  
    16     6    12 2   
    17     7    15 1   
    18     8     9 ar  
    19     8    10 ar  
    20     8    18 1   
    21     9    23 2   
    22    10    25 1   
    23    11    14 ar  
    24    11    26 1   
    25    12    13 1   
    26    12    22 1   
    27    13    28 1   
    28    14    16 1   
    29    14    20 ar  
    30    15    21 2   
    31    15    28 1   
    32    16    24 1   
    33    16    27 1   
    34    17    19 1   
    35    17    32 1   
    36    17    33 1   
    37    17    34 1   
    38    18    19 1   
    39    18    35 1   
    40    18    36 1   
    41    19    37 1   
    42    19    38 1   
    43    22    23 1   
    44    22    39 1   
    45    25    40 1   
    46    26    41 1   
@<TRIPOS>SUBSTRUCTURE
     1 57Y         1 TEMP              0 ****  ****    0 ROOT
