@<TRIPOS>MOLECULE
57Z
   51    53     1     0     0
SMALL
bcc


@<TRIPOS>ATOM
      1 OAC         -2.9430     3.0680     1.7290 o          1 57Z      -0.641500
      2 CAY         -2.9140     2.0040     1.1170 c          1 57Z       0.708700
      3 NAR         -4.0630     1.3130     0.8500 ns         1 57Z      -0.434100
      4 CBA         -4.1480     0.1150     0.1830 ca         1 57Z       0.097600
      5 CAV         -5.3900    -0.5060    -0.0340 ca         1 57Z      -0.125300
      6 CAB         -6.6590     0.1180     0.4640 c3         1 57Z      -0.048800
      7 CAK         -5.3960    -1.7070    -0.7150 ca         1 57Z      -0.078000
      8 CAT         -4.2270    -2.3240    -1.1900 ca         1 57Z      -0.106300
      9 CAA         -4.3100    -3.6240    -1.9350 c3         1 57Z      -0.041800
     10 CAL         -3.0230    -1.6960    -0.9580 ca         1 57Z      -0.070000
     11 CAZ         -2.9660    -0.4730    -0.2750 ca         1 57Z      -0.125800
     12 CAM         -1.7340     0.2100    -0.0240 cc         1 57Z      -0.014200
     13 CAX         -1.6860     1.3910     0.6260 cd         1 57Z      -0.214400
     14 CAP         -0.4180     2.1490     0.9070 c3         1 57Z       0.157200
     15 NBB          0.7240     1.6630     0.1650 n          1 57Z      -0.438800
     16 CAO          0.8080     2.1290    -1.2180 c3         1 57Z       0.068000
     17 CAN          1.6380     3.3820    -1.4170 c3         1 57Z       0.118400
     18 OAD          3.0130     3.0710    -1.2790 oh         1 57Z      -0.621800
     19 CAS          1.5720     0.7540     0.6960 cs         1 57Z       0.608400
     20 SAF          1.2330    -0.0640     2.1260 s          1 57Z      -0.648400
     21 NAQ          2.7100     0.5550    -0.0040 ns         1 57Z      -0.438100
     22 CAW          3.6570    -0.4580     0.2350 ca         1 57Z       0.027600
     23 CAI          3.2990    -1.8040     0.2460 ca         1 57Z      -0.090000
     24 CAG          4.2560    -2.7850     0.4220 ca         1 57Z      -0.179500
     25 CAU          5.6000    -2.4400     0.5690 ca         1 57Z       0.134100
     26 OAE          6.4920    -3.4410     0.7270 oh         1 57Z      -0.493100
     27 CAH          5.9650    -1.0990     0.5400 ca         1 57Z      -0.179500
     28 CAJ          4.9950    -0.1180     0.3810 ca         1 57Z      -0.090000
     29 H1          -4.9170     1.7430     1.1780 hn         1 57Z       0.329500
     30 H2          -6.8220     1.1100     0.0350 hc         1 57Z       0.045700
     31 H3          -7.5190    -0.4950     0.2020 hc         1 57Z       0.045700
     32 H4          -6.6570     0.2320     1.5510 hc         1 57Z       0.045700
     33 H5          -6.3500    -2.1940    -0.8870 ha         1 57Z       0.132000
     34 H6          -4.8700    -4.3720    -1.3710 hc         1 57Z       0.043033
     35 H7          -4.8190    -3.4990    -2.8920 hc         1 57Z       0.043033
     36 H8          -3.3200    -4.0320    -2.1380 hc         1 57Z       0.043033
     37 H9          -2.0970    -2.1420    -1.3040 ha         1 57Z       0.136000
     38 H10         -0.8220    -0.2520    -0.3830 ha         1 57Z       0.143000
     39 H11         -0.5610     3.2020     0.6510 h1         1 57Z       0.087700
     40 H12         -0.1960     2.1190     1.9740 h1         1 57Z       0.087700
     41 H13          1.1750     1.3240    -1.8580 h1         1 57Z       0.070200
     42 H14         -0.2090     2.3400    -1.5530 h1         1 57Z       0.070200
     43 H15          1.4300     3.7710    -2.4200 h1         1 57Z       0.043200
     44 H16          1.3270     4.1480    -0.7010 h1         1 57Z       0.043200
     45 H17          3.4750     3.8120    -0.8770 ho         1 57Z       0.422000
     46 H18          3.0270     1.3370    -0.5760 hn         1 57Z       0.346500
     47 H19          2.2650    -2.0880     0.1110 ha         1 57Z       0.140500
     48 H20          3.9670    -3.8290     0.4290 ha         1 57Z       0.141000
     49 H21          7.3860    -3.0870     0.7850 ho         1 57Z       0.424000
     50 H22          7.0040    -0.8100     0.6480 ha         1 57Z       0.141000
     51 H23          5.2930     0.9230     0.3720 ha         1 57Z       0.140500
@<TRIPOS>BOND
     1     1     2 2   
     2     2     3 1   
     3     2    13 1   
     4     3     4 1   
     5     3    29 1   
     6     4     5 ar  
     7     4    11 ar  
     8     5     6 1   
     9     5     7 ar  
    10     6    30 1   
    11     6    31 1   
    12     6    32 1   
    13     7     8 ar  
    14     7    33 1   
    15     8     9 1   
    16     8    10 ar  
    17     9    34 1   
    18     9    35 1   
    19     9    36 1   
    20    10    11 ar  
    21    10    37 1   
    22    11    12 1   
    23    12    13 2   
    24    12    38 1   
    25    13    14 1   
    26    14    15 1   
    27    14    39 1   
    28    14    40 1   
    29    15    16 1   
    30    15    19 1   
    31    16    17 1   
    32    16    41 1   
    33    16    42 1   
    34    17    18 1   
    35    17    43 1   
    36    17    44 1   
    37    18    45 1   
    38    19    20 2   
    39    19    21 1   
    40    21    22 1   
    41    21    46 1   
    42    22    23 ar  
    43    22    28 ar  
    44    23    24 ar  
    45    23    47 1   
    46    24    25 ar  
    47    24    48 1   
    48    25    26 1   
    49    25    27 ar  
    50    26    49 1   
    51    27    28 ar  
    52    27    50 1   
    53    28    51 1   
@<TRIPOS>SUBSTRUCTURE
     1 57Z         1 TEMP              0 ****  ****    0 ROOT
