@<TRIPOS>MOLECULE
57Z
   51    53     1     0     0
SMALL
No Charge or Current Charge


@<TRIPOS>ATOM
      1 OAC         -3.0360     3.1140     1.6250 o          1 57Z      -0.566000
      2 CAY         -3.0210     2.0300     1.0620 c          1 57Z       0.566200
      3 NAR         -4.1850     1.4030     0.7110 ns         1 57Z      -0.367100
      4 CBA         -4.3170     0.1650     0.0700 ca         1 57Z       0.097600
      5 CAV         -5.5830    -0.3740    -0.2440 ca         1 57Z      -0.125300
      6 CAB         -6.8670     0.3750     0.1030 c3         1 57Z      -0.048800
      7 CAK         -5.6540    -1.6240    -0.8880 ca         1 57Z      -0.060000
      8 CAT         -4.4810    -2.3290    -1.2140 ca         1 57Z      -0.106300
      9 CAA         -4.5680    -3.6780    -1.9130 c3         1 57Z      -0.041800
     10 CAL         -3.2260    -1.7770    -0.8970 ca         1 57Z      -0.052000
     11 CAZ         -3.1400    -0.5290    -0.2530 ca         1 57Z      -0.125800
     12 CAM         -1.8300     0.0380     0.0740 cc         1 57Z      -0.064200
     13 CAX         -1.7800     1.2800     0.7000 cd         1 57Z      -0.214400
     14 CAP         -0.4940     1.9820     1.0950 c3         1 57Z       0.157200
     15 NBB          0.7240     1.4970     0.3980 n          1 57Z      -0.371800
     16 CAO          0.8750     2.0140    -0.9980 c3         1 57Z       0.068000
     17 CAN          1.7400     3.2880    -1.1290 c3         1 57Z       0.141600
     18 OAD          3.1270     2.9730    -0.9350 oh         1 57Z      -0.684000
     19 CAS          1.5430     0.5300     0.9680 cs         1 57Z       0.474400
     20 SAF          1.2150    -0.2830     2.3970 s          1 57Z      -0.648400
     21 NAQ          2.7210     0.4000     0.2800 ns         1 57Z      -0.371100
     22 CAW          3.8070    -0.5070     0.3460 ca         1 57Z       0.027600
     23 CAI          3.6620    -1.8300     0.8140 ca         1 57Z      -0.072000
     24 CAG          4.7680    -2.6980     0.8380 ca         1 57Z      -0.161500
     25 CAU          6.0210    -2.2570     0.3890 ca         1 57Z       0.134100
     26 OAE          7.0850    -3.1080     0.4170 oh         1 57Z      -0.532100
     27 CAH          6.1700    -0.9480    -0.0950 ca         1 57Z      -0.161500
     28 CAJ          5.0640    -0.0790    -0.1210 ca         1 57Z      -0.072000
     29 H1          -5.0370     1.8930     0.9460 hn         1 57Z       0.329500
     30 H2          -6.9000     1.3520    -0.3930 hc         1 57Z       0.045700
     31 H3          -7.7590    -0.1800    -0.2110 hc         1 57Z       0.045700
     32 H4          -6.9490     0.5400     1.1840 hc         1 57Z       0.045700
     33 H5          -6.6230    -2.0510    -1.1380 ha         1 57Z       0.114000
     34 H6          -5.4840    -4.2140    -1.6370 hc         1 57Z       0.043033
     35 H7          -4.5670    -3.5540    -3.0030 hc         1 57Z       0.043033
     36 H8          -3.7200    -4.3220    -1.6490 hc         1 57Z       0.043033
     37 H9          -2.3180    -2.3190    -1.1510 ha         1 57Z       0.118000
     38 H10         -0.9160    -0.4990    -0.1640 ha         1 57Z       0.193000
     39 H11         -0.5940     3.0560     0.8850 h1         1 57Z       0.087700
     40 H12         -0.3620     1.9000     2.1810 h1         1 57Z       0.087700
     41 H13          1.2720     1.2280    -1.6540 h1         1 57Z       0.070200
     42 H14         -0.1240     2.2510    -1.3890 h1         1 57Z       0.070200
     43 H15          1.5880     3.7120    -2.1310 h1         1 57Z       0.043200
     44 H16          1.4010     4.0340    -0.3970 h1         1 57Z       0.043200
     45 H17          3.6290     3.8160    -1.0300 ho         1 57Z       0.461000
     46 H18          2.8570     1.1500    -0.3940 hn         1 57Z       0.346500
     47 H19          2.6950    -2.2010     1.1400 ha         1 57Z       0.122500
     48 H20          4.6490    -3.7170     1.2000 ha         1 57Z       0.123000
     49 H21          7.8710    -2.6360     0.0680 ho         1 57Z       0.463000
     50 H22          7.1360    -0.5980    -0.4520 ha         1 57Z       0.123000
     51 H23          5.1890     0.9340    -0.4990 ha         1 57Z       0.122500
@<TRIPOS>BOND
     1     1     2 2   
     2     2     3 1   
     3     2    13 1   
     4     3     4 1   
     5     3    29 1   
     6     4     5 ar  
     7     4    11 ar  
     8     5     6 1   
     9     5     7 ar  
    10     6    30 1   
    11     6    31 1   
    12     6    32 1   
    13     7     8 ar  
    14     7    33 1   
    15     8     9 1   
    16     8    10 ar  
    17     9    34 1   
    18     9    35 1   
    19     9    36 1   
    20    10    11 ar  
    21    10    37 1   
    22    11    12 1   
    23    12    13 2   
    24    12    38 1   
    25    13    14 1   
    26    14    15 1   
    27    14    39 1   
    28    14    40 1   
    29    15    16 1   
    30    15    19 1   
    31    16    17 1   
    32    16    41 1   
    33    16    42 1   
    34    17    18 1   
    35    17    43 1   
    36    17    44 1   
    37    18    45 1   
    38    19    20 2   
    39    19    21 1   
    40    21    22 1   
    41    21    46 1   
    42    22    23 ar  
    43    22    28 ar  
    44    23    24 ar  
    45    23    47 1   
    46    24    25 ar  
    47    24    48 1   
    48    25    26 1   
    49    25    27 ar  
    50    26    49 1   
    51    27    28 ar  
    52    27    50 1   
    53    28    51 1   
@<TRIPOS>SUBSTRUCTURE
     1 57Z         1 TEMP              0 ****  ****    0 ROOT
