@<TRIPOS>MOLECULE
580
   38    41     1     0     0
SMALL
No Charge or Current Charge


@<TRIPOS>ATOM
      1 C1          -0.1740     0.4370    -1.0100 cc         1 580      -0.098000
      2 C2           1.2380     0.1960    -0.9200 cc         1 580       0.206000
      3 N3           1.8260     0.1680    -2.1210 nd         1 580      -0.502800
      4 N4           0.7830     0.4810    -2.9660 na         1 580       0.138800
      5 C5          -0.3900     0.6420    -2.3400 cd         1 580      -0.158300
      6 C6           0.6530     0.1080    -4.3460 c5         1 580       0.081600
      7 C7          -0.9040    -0.1800    -4.5220 c5         1 580      -0.102400
      8 C8          -1.5980     0.3330    -3.1720 c5         1 580      -0.011100
      9 C15          2.0130    -0.0120     0.3340 ca         1 580       0.328000
     10 C16         -1.2900     0.1950    -0.0800 ca         1 580       0.010000
     11 C17         -2.4790     0.9520    -0.1810 ca         1 580      -0.068000
     12 C18         -3.5550     0.7210     0.6940 ca         1 580      -0.156000
     13 C19         -3.4560    -0.2750     1.6750 ca         1 580       0.164000
     14 C20         -2.2900    -1.0440     1.7830 ca         1 580      -0.156000
     15 C21         -1.2130    -0.8110     0.9080 ca         1 580      -0.068000
     16 C26          3.3310    -0.5260     0.2760 ca         1 580      -0.141000
     17 C27          4.0900    -0.6530     1.4510 ca         1 580      -0.078000
     18 C28          3.5140    -0.2360     2.6580 ca         1 580      -0.164000
     19 C29          2.2150     0.2970     2.6450 ca         1 580       0.358300
     20 N30          1.4900     0.4230     1.5130 nb         1 580      -0.671000
     21 F34         -4.4900    -0.4980     2.5150 f          1 580      -0.185000
     22 C35          1.5500     0.7810     3.9190 c3         1 580      -0.144400
     23 H61          0.9850     0.9360    -4.9840 h1         1 580       0.070200
     24 H62          1.2640    -0.7750    -4.5750 h1         1 580       0.070200
     25 H71         -1.3120     0.3170    -5.4090 hc         1 580       0.061200
     26 H72         -1.0780    -1.2540    -4.6540 hc         1 580       0.061200
     27 H81         -2.2140     1.2220    -3.3490 hc         1 580       0.068700
     28 H82         -2.2430    -0.4360    -2.7320 hc         1 580       0.068700
     29 H17         -2.5620     1.7400    -0.9260 ha         1 580       0.116500
     30 H18         -4.4620     1.3150     0.6140 ha         1 580       0.127500
     31 H20         -2.2220    -1.8220     2.5380 ha         1 580       0.127500
     32 H21         -0.3280    -1.4370     0.9850 ha         1 580       0.116500
     33 H26          3.7600    -0.8350    -0.6730 ha         1 580       0.137000
     34 H27          5.0990    -1.0590     1.4230 ha         1 580       0.118000
     35 H28          4.0670    -0.3150     3.5900 ha         1 580       0.121000
     36 H351         1.6610     1.8660     4.0270 hc         1 580       0.051367
     37 H352         0.4780     0.5490     3.9230 hc         1 580       0.051367
     38 H353         1.9930     0.3080     4.8030 hc         1 580       0.051367
@<TRIPOS>BOND
     1     1     2 1   
     2     1     5 2   
     3     1    10 1   
     4     2     3 2   
     5     2     9 1   
     6     3     4 1   
     7     4     5 1   
     8     4     6 1   
     9     5     8 1   
    10     6     7 1   
    11     6    23 1   
    12     6    24 1   
    13     7     8 1   
    14     7    25 1   
    15     7    26 1   
    16     8    27 1   
    17     8    28 1   
    18     9    16 ar  
    19     9    20 ar  
    20    10    11 ar  
    21    10    15 ar  
    22    11    12 ar  
    23    11    29 1   
    24    12    13 ar  
    25    12    30 1   
    26    13    14 ar  
    27    13    21 1   
    28    14    15 ar  
    29    14    31 1   
    30    15    32 1   
    31    16    17 ar  
    32    16    33 1   
    33    17    18 ar  
    34    17    34 1   
    35    18    19 ar  
    36    18    35 1   
    37    19    20 ar  
    38    19    22 1   
    39    22    36 1   
    40    22    37 1   
    41    22    38 1   
@<TRIPOS>SUBSTRUCTURE
     1 580         1 TEMP              0 ****  ****    0 ROOT
