@<TRIPOS>MOLECULE
580
   38    41     1     0     0
SMALL
abcg2


@<TRIPOS>ATOM
      1 C1          -0.2760     0.0050    -0.9980 cc         1 580      -0.098000
      2 C2           1.1430    -0.0340    -0.8970 cc         1 580       0.206000
      3 N3           1.7170    -0.0270    -2.0970 nd         1 580      -0.502800
      4 N4           0.7100     0.0320    -2.9430 na         1 580       0.138800
      5 C5          -0.4940     0.0480    -2.3610 cd         1 580      -0.158300
      6 C6           0.6980    -0.0240    -4.3900 c5         1 580       0.081600
      7 C7          -0.7640     0.3480    -4.6870 c5         1 580      -0.102400
      8 C8          -1.5620     0.0250    -3.4000 c5         1 580      -0.011100
      9 C15          1.9810    -0.0480     0.3080 ca         1 580       0.328000
     10 C16         -1.3150    -0.0490     0.0360 ca         1 580       0.010000
     11 C17         -2.4010     0.8220    -0.0140 ca         1 580      -0.068000
     12 C18         -3.4210     0.7630     0.9270 ca         1 580      -0.156000
     13 C19         -3.3380    -0.1810     1.9290 ca         1 580       0.164000
     14 C20         -2.2780    -1.0650     2.0140 ca         1 580      -0.156000
     15 C21         -1.2750    -0.9940     1.0620 ca         1 580      -0.068000
     16 C26          3.2890    -0.5310     0.2670 ca         1 580      -0.141000
     17 C27          4.0240    -0.5250     1.4390 ca         1 580      -0.078000
     18 C28          3.4410    -0.0500     2.6040 ca         1 580      -0.164000
     19 C29          2.1320     0.4230     2.5530 ca         1 580       0.358300
     20 N30          1.4330     0.4240     1.4230 nb         1 580      -0.671000
     21 F34         -4.3150    -0.2450     2.8500 f          1 580      -0.185000
     22 C35          1.4540     0.9780     3.7680 c3         1 580      -0.144400
     23 H61          1.4150     0.6760    -4.8150 h1         1 580       0.070200
     24 H62          0.9530    -1.0310    -4.7250 h1         1 580       0.070200
     25 H71         -0.8320     1.4160    -4.8960 hc         1 580       0.061200
     26 H72         -1.1470    -0.1840    -5.5550 hc         1 580       0.061200
     27 H81         -2.3560     0.7480    -3.2240 hc         1 580       0.068700
     28 H82         -2.0260    -0.9640    -3.4470 hc         1 580       0.068700
     29 H17         -2.4510     1.5750    -0.7900 ha         1 580       0.116500
     30 H18         -4.2590     1.4460     0.8800 ha         1 580       0.127500
     31 H20         -2.2410    -1.8030     2.8050 ha         1 580       0.127500
     32 H21         -0.4530    -1.6950     1.1170 ha         1 580       0.116500
     33 H26          3.7070    -0.9100    -0.6540 ha         1 580       0.137000
     34 H27          5.0400    -0.8990     1.4490 ha         1 580       0.118000
     35 H28          3.9880    -0.0480     3.5380 ha         1 580       0.121000
     36 H351         1.5380     2.0660     3.7920 hc         1 580       0.051367
     37 H352         0.3920     0.7330     3.7600 hc         1 580       0.051367
     38 H353         1.8960     0.5950     4.6870 hc         1 580       0.051367
@<TRIPOS>BOND
     1     1     2 1   
     2     1     5 2   
     3     1    10 1   
     4     2     3 2   
     5     2     9 1   
     6     3     4 1   
     7     4     5 1   
     8     4     6 1   
     9     5     8 1   
    10     6     7 1   
    11     6    23 1   
    12     6    24 1   
    13     7     8 1   
    14     7    25 1   
    15     7    26 1   
    16     8    27 1   
    17     8    28 1   
    18     9    16 ar  
    19     9    20 ar  
    20    10    11 ar  
    21    10    15 ar  
    22    11    12 ar  
    23    11    29 1   
    24    12    13 ar  
    25    12    30 1   
    26    13    14 ar  
    27    13    21 1   
    28    14    15 ar  
    29    14    31 1   
    30    15    32 1   
    31    16    17 ar  
    32    16    33 1   
    33    17    18 ar  
    34    17    34 1   
    35    18    19 ar  
    36    18    35 1   
    37    19    20 ar  
    38    19    22 1   
    39    22    36 1   
    40    22    37 1   
    41    22    38 1   
@<TRIPOS>SUBSTRUCTURE
     1 580         1 TEMP              0 ****  ****    0 ROOT
