@<TRIPOS>MOLECULE
582
   30    32     1     0     0
SMALL
abcg2


@<TRIPOS>ATOM
      1 C1          -3.4910    -1.0690    -0.0520 ca         1 582      -0.061000
      2 C2          -2.7620     0.1020    -0.1400 ca         1 582      -0.165000
      3 C3          -1.3600     0.0790    -0.1280 ca         1 582       0.125600
      4 C4          -0.7300    -1.1800    -0.0120 ca         1 582      -0.098000
      5 C5          -1.4840    -2.3510     0.0750 ca         1 582      -0.058000
      6 C6          -2.8610    -2.3060     0.0540 ca         1 582      -0.144000
      7 N11         -0.6140     1.2530    -0.2290 n          1 582      -0.298000
      8 C12          0.7720     1.3030    -0.1510 c          1 582       0.618600
      9 C13          1.4160     0.0240    -0.0430 cc         1 582      -0.289600
     10 C14          0.6980    -1.1520     0.0170 cd         1 582      -0.025000
     11 O2           1.3760     2.3670    -0.1820 o          1 582      -0.549000
     12 C18         -1.3030     2.5370    -0.3640 c3         1 582       0.089000
     13 N1           1.6010    -2.1340     0.1100 na         1 582       0.000800
     14 C23          2.7780    -0.3620     0.0230 cc         1 582       0.332300
     15 C9           3.9870     0.5010    -0.0040 c3         1 582      -0.124400
     16 N2           2.8600    -1.6710     0.1130 nd         1 582      -0.522800
     17 C7          -1.7300     3.1200     0.9730 c3         1 582      -0.112100
     18 H1          -4.5710    -1.0110    -0.0620 ha         1 582       0.117000
     19 H2          -3.3090     1.0290    -0.2120 ha         1 582       0.124000
     20 H5          -0.9790    -3.3050     0.1650 ha         1 582       0.108000
     21 H6          -3.4420    -3.2150     0.1240 ha         1 582       0.121000
     22 H181        -0.6280     3.2210    -0.8680 h1         1 582       0.063700
     23 H182        -2.1540     2.4080    -1.0290 h1         1 582       0.063700
     24 HN1          1.4420    -3.1270     0.1700 hn         1 582       0.377000
     25 H91          3.9930     1.1930     0.8380 hc         1 582       0.057367
     26 H92          4.8910    -0.1030     0.0400 hc         1 582       0.057367
     27 H93          4.0180     1.1030    -0.9130 hc         1 582       0.057367
     28 H71         -2.2680     4.0540     0.8140 hc         1 582       0.045033
     29 H72         -2.3860     2.4460     1.5230 hc         1 582       0.045033
     30 H73         -0.8630     3.3350     1.5980 hc         1 582       0.045033
@<TRIPOS>BOND
     1     1     2 ar  
     2     1     6 ar  
     3     1    18 1   
     4     2     3 ar  
     5     2    19 1   
     6     3     4 ar  
     7     3     7 1   
     8     4     5 ar  
     9     4    10 1   
    10     5     6 ar  
    11     5    20 1   
    12     6    21 1   
    13     7     8 1   
    14     7    12 1   
    15     8     9 1   
    16     8    11 2   
    17     9    10 2   
    18     9    14 1   
    19    10    13 1   
    20    12    17 1   
    21    12    22 1   
    22    12    23 1   
    23    13    16 1   
    24    13    24 1   
    25    14    15 1   
    26    14    16 2   
    27    15    25 1   
    28    15    26 1   
    29    15    27 1   
    30    17    28 1   
    31    17    29 1   
    32    17    30 1   
@<TRIPOS>SUBSTRUCTURE
     1 582         1 TEMP              0 ****  ****    0 ROOT
