@<TRIPOS>MOLECULE
582
   30    32     1     0     0
SMALL
No Charge or Current Charge


@<TRIPOS>ATOM
      1 C1          -3.5390    -1.1180    -0.0150 ca         1 582      -0.061000
      2 C2          -2.8040     0.0780    -0.0900 ca         1 582      -0.165000
      3 C3          -1.3880     0.0600    -0.1280 ca         1 582       0.125600
      4 C4          -0.7380    -1.1930    -0.0320 ca         1 582      -0.098000
      5 C5          -1.4730    -2.3910     0.0400 ca         1 582      -0.058000
      6 C6          -2.8750    -2.3520     0.0430 ca         1 582      -0.144000
      7 N11         -0.5910     1.2850    -0.1760 n          1 582      -0.298000
      8 C12          0.8360     1.2850    -0.1260 c          1 582       0.618600
      9 C13          1.4420    -0.0530    -0.0380 cc         1 582      -0.289600
     10 C14          0.7140    -1.1820    -0.0000 cd         1 582      -0.025000
     11 O2           1.4990     2.3150    -0.1550 o          1 582      -0.549000
     12 C18         -1.2660     2.5970    -0.3700 c3         1 582       0.089000
     13 N1           1.6440    -2.2210     0.0840 na         1 582       0.000800
     14 C23          2.7940    -0.4280     0.0210 cc         1 582       0.332300
     15 C9           3.9470     0.5350     0.0040 c3         1 582      -0.124400
     16 N2           2.9590    -1.7380     0.0960 nd         1 582      -0.522800
     17 C7          -1.7470     3.2280     0.9510 c3         1 582      -0.112100
     18 H1          -4.6270    -1.0870     0.0020 ha         1 582       0.117000
     19 H2          -3.3610     1.0090    -0.1210 ha         1 582       0.124000
     20 H5          -0.9650    -3.3500     0.1040 ha         1 582       0.108000
     21 H6          -3.4460    -3.2760     0.1030 ha         1 582       0.121000
     22 H181        -0.5880     3.3010    -0.8700 h1         1 582       0.063700
     23 H182        -2.1150     2.4750    -1.0540 h1         1 582       0.063700
     24 HN1          1.4360    -3.2160     0.1320 hn         1 582       0.377000
     25 H91          3.8930     1.2210     0.8570 hc         1 582       0.057367
     26 H92          4.9060     0.0070     0.0580 hc         1 582       0.057367
     27 H93          3.9430     1.1300    -0.9160 hc         1 582       0.057367
     28 H71         -2.2510     4.1810     0.7560 hc         1 582       0.045033
     29 H72         -2.4490     2.5670     1.4720 hc         1 582       0.045033
     30 H73         -0.8960     3.4180     1.6160 hc         1 582       0.045033
@<TRIPOS>BOND
     1     1     2 ar  
     2     1     6 ar  
     3     1    18 1   
     4     2     3 ar  
     5     2    19 1   
     6     3     4 ar  
     7     3     7 1   
     8     4     5 ar  
     9     4    10 1   
    10     5     6 ar  
    11     5    20 1   
    12     6    21 1   
    13     7     8 1   
    14     7    12 1   
    15     8     9 1   
    16     8    11 2   
    17     9    10 2   
    18     9    14 1   
    19    10    13 1   
    20    12    17 1   
    21    12    22 1   
    22    12    23 1   
    23    13    16 1   
    24    13    24 1   
    25    14    15 1   
    26    14    16 2   
    27    15    25 1   
    28    15    26 1   
    29    15    27 1   
    30    17    28 1   
    31    17    29 1   
    32    17    30 1   
@<TRIPOS>SUBSTRUCTURE
     1 582         1 TEMP              0 ****  ****    0 ROOT
