@<TRIPOS>MOLECULE
583
   31    33     1     0     0
SMALL
abcg2


@<TRIPOS>ATOM
      1 C1           0.6900     1.6170    -0.0340 cc         1 583      -0.139000
      2 C2          -0.7300     1.6320    -0.0440 cc         1 583       0.323500
      3 C3           1.6170     0.4850     0.0490 ca         1 583      -0.034000
      4 C11          2.2980    -1.6190     1.0470 ca         1 583      -0.177000
      5 C12         -2.3200    -1.7070    -0.7830 ca         1 583      -0.183000
      6 C13         -3.7680    -0.4680     0.6850 ca         1 583      -0.183000
      7 C14          3.4340    -1.6520     0.2390 ca         1 583       0.136100
      8 C15         -3.5020    -1.6220    -0.0510 ca         1 583       0.144100
      9 C4           1.0360     2.9520    -0.0730 cd         1 583      -0.165000
     10 C5          -1.6690     0.5050    -0.0370 ca         1 583      -0.160500
     11 N1          -1.1870     2.8760    -0.0800 nd         1 583      -0.518800
     12 C6           2.7560     0.4340    -0.7520 ca         1 583      -0.063500
     13 C7           1.4110    -0.5610     0.9510 ca         1 583      -0.063500
     14 N2          -0.1100     3.6470    -0.0940 na         1 583       0.001800
     15 C8          -1.4200    -0.6530    -0.7720 ca         1 583      -0.047500
     16 C9          -2.8600     0.5760     0.6860 ca         1 583      -0.047500
     17 C10          3.6600    -0.6150    -0.6610 ca         1 583      -0.177000
     18 H1           5.0160    -2.6110    -0.2340 ho         1 583       0.463000
     19 H2          -4.1190    -3.3590    -0.5530 ho         1 583       0.464000
     20 H3           2.1200    -2.4170     1.7570 ha         1 583       0.120000
     21 H4          -2.1030    -2.5910    -1.3720 ha         1 583       0.120500
     22 H5          -4.6840    -0.3960     1.2580 ha         1 583       0.120500
     23 H6           1.9990     3.4360    -0.0590 h4         1 583       0.156000
     24 H8           2.9420     1.2220    -1.4710 ha         1 583       0.117500
     25 H9           0.5450    -0.5460     1.6000 ha         1 583       0.117500
     26 H10         -0.5150    -0.7350    -1.3600 ha         1 583       0.123000
     27 H11         -3.0800     1.4620     1.2690 ha         1 583       0.123000
     28 H12          4.5360    -0.6260    -1.2990 ha         1 583       0.120000
     29 H7          -0.2120     4.6490    -0.1220 hn         1 583       0.374000
     30 O1           4.2700    -2.7020     0.3690 oh         1 583      -0.533100
     31 O2          -4.4140    -2.6120    -0.0210 oh         1 583      -0.533100
@<TRIPOS>BOND
     1     1     2 1   
     2     1     3 1   
     3     1     9 2   
     4     2    10 1   
     5     2    11 2   
     6     3    12 ar  
     7     3    13 ar  
     8     4     7 ar  
     9     4    13 ar  
    10     4    20 1   
    11     5     8 ar  
    12     5    15 ar  
    13     5    21 1   
    14     6     8 ar  
    15     6    16 ar  
    16     6    22 1   
    17     7    17 ar  
    18     7    30 1   
    19     8    31 1   
    20     9    14 1   
    21     9    23 1   
    22    10    15 ar  
    23    10    16 ar  
    24    11    14 1   
    25    12    17 ar  
    26    12    24 1   
    27    13    25 1   
    28    14    29 1   
    29    15    26 1   
    30    16    27 1   
    31    17    28 1   
    32    18    30 1   
    33    19    31 1   
@<TRIPOS>SUBSTRUCTURE
     1 583         1 TEMP              0 ****  ****    0 ROOT
