@<TRIPOS>MOLECULE
583
   31    33     1     0     0
SMALL
No Charge or Current Charge


@<TRIPOS>ATOM
      1 C1           0.6420     1.5520    -0.1450 cc         1 583      -0.139000
      2 C2          -0.7610     1.6210     0.0790 cc         1 583       0.323500
      3 C3           1.6160     0.4530    -0.0410 ca         1 583      -0.034000
      4 C11          2.3020    -1.7080     0.8820 ca         1 583      -0.177000
      5 C12         -2.3710    -1.7640    -0.6050 ca         1 583      -0.183000
      6 C13         -3.9410    -0.3850     0.6230 ca         1 583      -0.183000
      7 C14          3.5200    -1.6270     0.1940 ca         1 583       0.136100
      8 C15         -3.6230    -1.5990     0.0030 ca         1 583       0.144100
      9 C4           1.0960     2.8370    -0.2120 cd         1 583      -0.165000
     10 C5          -1.7170     0.4960     0.0870 ca         1 583      -0.160500
     11 N1          -1.1970     2.8700     0.1200 nd         1 583      -0.518800
     12 C6           2.8580     0.5320    -0.7110 ca         1 583      -0.063500
     13 C7           1.3580    -0.6730     0.7710 ca         1 583      -0.063500
     14 N2          -0.0440     3.6290    -0.0610 na         1 583       0.001800
     15 C8          -1.4300    -0.7200    -0.5750 ca         1 583      -0.047500
     16 C9          -3.0030     0.6620     0.6520 ca         1 583      -0.047500
     17 C10          3.8010    -0.5060    -0.5990 ca         1 583      -0.177000
     18 H1           5.2150    -2.4080    -0.2330 ho         1 583       0.463000
     19 H2          -4.1490    -3.3690    -0.4990 ho         1 583       0.464000
     20 H3           2.0900    -2.5700     1.5100 ha         1 583       0.120000
     21 H4          -2.1230    -2.6920    -1.1140 ha         1 583       0.120500
     22 H5          -4.9190    -0.2490     1.0790 ha         1 583       0.120500
     23 H6           2.0960     3.2490    -0.2980 h4         1 583       0.156000
     24 H8           3.0890     1.3890    -1.3390 ha         1 583       0.117500
     25 H9           0.4350    -0.7390     1.3410 ha         1 583       0.117500
     26 H10         -0.4870    -0.8560    -1.0990 ha         1 583       0.123000
     27 H11         -3.2750     1.5970     1.1370 ha         1 583       0.123000
     28 H12          4.7450    -0.4300    -1.1330 ha         1 583       0.120000
     29 H7          -0.0730     4.6490    -0.0610 hn         1 583       0.374000
     30 O1           4.4290    -2.6350     0.3090 oh         1 583      -0.533100
     31 O2          -4.5410    -2.6050    -0.0240 oh         1 583      -0.533100
@<TRIPOS>BOND
     1     1     2 1   
     2     1     3 1   
     3     1     9 2   
     4     2    10 1   
     5     2    11 2   
     6     3    12 ar  
     7     3    13 ar  
     8     4     7 ar  
     9     4    13 ar  
    10     4    20 1   
    11     5     8 ar  
    12     5    15 ar  
    13     5    21 1   
    14     6     8 ar  
    15     6    16 ar  
    16     6    22 1   
    17     7    17 ar  
    18     7    30 1   
    19     8    31 1   
    20     9    14 1   
    21     9    23 1   
    22    10    15 ar  
    23    10    16 ar  
    24    11    14 1   
    25    12    17 ar  
    26    12    24 1   
    27    13    25 1   
    28    14    29 1   
    29    15    26 1   
    30    16    27 1   
    31    17    28 1   
    32    18    30 1   
    33    19    31 1   
@<TRIPOS>SUBSTRUCTURE
     1 583         1 TEMP              0 ****  ****    0 ROOT
