@<TRIPOS>MOLECULE
584
   51    53     1     0     0
SMALL
bcc


@<TRIPOS>ATOM
      1 C1           0.3590     0.3930     0.1460 ca         1 584       0.931900
      2 C2          -1.9070     0.5110     0.3340 ca         1 584       0.741200
      3 C3          -1.8390     1.9100     0.0980 ca         1 584      -0.267000
      4 O2           6.9140     0.2510    -0.4300 oh         1 584      -0.470100
      5 C11         -2.8680    -4.7440    -1.2740 c3         1 584      -0.088100
      6 C12         -2.1350    -4.3760     1.0950 c3         1 584      -0.088100
      7 C14          2.7890    -0.2250     0.0420 ca         1 584       0.209600
      8 C15          3.6430    -1.3200     0.2080 ca         1 584      -0.204500
      9 C16          4.9990    -1.1570     0.0490 ca         1 584       0.128400
     10 C17          5.5900     0.0580    -0.2680 ca         1 584       0.026100
     11 C18          4.7130     1.1220    -0.4260 ca         1 584       0.128400
     12 C19          3.3460     1.0130    -0.2840 ca         1 584      -0.204500
     13 N1           0.5270     1.6680    -0.1320 nb         1 584      -0.769000
     14 N2          -0.8050    -0.2150     0.3780 nb         1 584      -0.837000
     15 C4          -0.5880     2.4130    -0.1380 ca         1 584       0.455200
     16 N3           1.4350    -0.4530     0.2130 nu         1 584      -0.736300
     17 N4          -3.0910    -0.0850     0.5390 nh         1 584      -0.780300
     18 C5          -3.1520    -1.5060     0.8480 c3         1 584       0.237800
     19 C6          -2.8920    -2.4270    -0.3420 c3         1 584      -0.098400
     20 C7          -3.0740    -3.9090    -0.0140 c3         1 584      -0.056700
     21 C8          -4.3390     0.6270     0.3400 c6         1 584       0.165500
     22 C9          -4.2200     2.1440     0.3780 c          1 584       0.708500
     23 N5          -2.9930     2.6940     0.1780 n          1 584      -0.351000
     24 C10         -5.0460     0.2310    -0.9580 c3         1 584      -0.112100
     25 F1           5.8120    -2.2150     0.2100 f          1 584      -0.135400
     26 F2           5.2360     2.3120    -0.7350 f          1 584      -0.135400
     27 H1           7.4020    -0.5420    -0.1890 ho         1 584       0.435000
     28 H2          -3.0560    -5.8020    -1.0840 hc         1 584       0.034033
     29 H3          -3.5360    -4.4290    -2.0770 hc         1 584       0.034033
     30 H4          -1.8440    -4.6500    -1.6420 hc         1 584       0.034033
     31 H5          -1.0950    -4.1480     0.8470 hc         1 584       0.034033
     32 H6          -2.3570    -3.9040     2.0530 hc         1 584       0.034033
     33 H7          -2.2110    -5.4540     1.2440 hc         1 584       0.034033
     34 H8          -3.8270     4.5900     0.2610 h1         1 584       0.053367
     35 H9          -2.1700     4.4930     0.8700 h1         1 584       0.053367
     36 H10         -2.4800     4.4330    -0.8750 h1         1 584       0.053367
     37 H11          3.2620    -2.3010     0.4630 ha         1 584       0.173000
     38 H12          2.7220     1.8820    -0.4210 ha         1 584       0.173000
     39 H13         -0.4340     3.4670    -0.3340 h4         1 584       0.028100
     40 H14          1.1710    -1.3990     0.4330 hn         1 584       0.455800
     41 H15         -2.4350    -1.7110     1.6430 h1         1 584       0.056200
     42 H16         -4.1450    -1.7010     1.2620 h1         1 584       0.056200
     43 H17         -3.5610    -2.1610    -1.1640 hc         1 584       0.052700
     44 H18         -1.8740    -2.2590    -0.7020 hc         1 584       0.052700
     45 H19         -4.1060    -4.0620     0.3240 hc         1 584       0.041700
     46 H20         -4.9980     0.3790     1.1770 h1         1 584       0.084700
     47 H21         -5.3030    -0.8280    -0.9500 hc         1 584       0.054700
     48 H22         -5.9730     0.7900    -1.0700 hc         1 584       0.054700
     49 H23         -4.4130     0.4230    -1.8250 hc         1 584       0.054700
     50 O1          -5.2250     2.8040     0.5300 o          1 584      -0.612500
     51 C13         -2.8570     4.1330     0.1040 c3         1 584       0.077300
@<TRIPOS>BOND
     1     1    13 ar  
     2     1    14 ar  
     3     1    16 1   
     4     2     3 ar  
     5     2    14 ar  
     6     2    17 1   
     7     3    15 ar  
     8     3    23 1   
     9     4    10 1   
    10     4    27 1   
    11     5    20 1   
    12     5    28 1   
    13     5    29 1   
    14     5    30 1   
    15     6    20 1   
    16     6    31 1   
    17     6    32 1   
    18     6    33 1   
    19     7     8 ar  
    20     7    12 ar  
    21     7    16 1   
    22     8     9 ar  
    23     8    37 1   
    24     9    10 ar  
    25     9    25 1   
    26    10    11 ar  
    27    11    12 ar  
    28    11    26 1   
    29    12    38 1   
    30    13    15 ar  
    31    15    39 1   
    32    16    40 1   
    33    17    18 1   
    34    17    21 1   
    35    18    19 1   
    36    18    41 1   
    37    18    42 1   
    38    19    20 1   
    39    19    43 1   
    40    19    44 1   
    41    20    45 1   
    42    21    22 1   
    43    21    24 1   
    44    21    46 1   
    45    22    23 1   
    46    22    50 2   
    47    23    51 1   
    48    24    47 1   
    49    24    48 1   
    50    24    49 1   
    51    34    51 1   
    52    35    51 1   
    53    36    51 1   
@<TRIPOS>SUBSTRUCTURE
     1 584         1 TEMP              0 ****  ****    0 ROOT
