@<TRIPOS>MOLECULE
584
   51    53     1     0     0
SMALL
No Charge or Current Charge


@<TRIPOS>ATOM
      1 C1           0.4570     0.4550     0.1930 ca         1 584       0.405900
      2 C2          -1.8300     0.5590     0.2600 ca         1 584       0.412900
      3 C3          -1.7690     1.9660     0.1260 ca         1 584      -0.229000
      4 O2           7.1080     0.2610    -0.3320 oh         1 584      -0.509100
      5 C11         -3.1590    -4.8370    -1.5080 c3         1 584      -0.088100
      6 C12         -2.0920    -4.5530     0.7850 c3         1 584      -0.088100
      7 C14          2.9430    -0.1770     0.0950 ca         1 584       0.348000
      8 C15          3.8180    -1.0730     0.7250 ca         1 584      -0.186500
      9 C16          5.2070    -0.9250     0.5870 ca         1 584       0.163500
     10 C17          5.7450     0.1180    -0.1950 ca         1 584       0.026100
     11 C18          4.8570     1.0040    -0.8400 ca         1 584       0.163500
     12 C19          3.4690     0.8550    -0.6990 ca         1 584      -0.186500
     13 N1           0.6350     1.7830     0.1240 nb         1 584      -0.243000
     14 N2          -0.7100    -0.1890     0.2830 nb         1 584      -0.311000
     15 C4          -0.4770     2.5380     0.1000 ca         1 584       0.126900
     16 N3           1.5700    -0.3700     0.2510 nu         1 584      -0.929900
     17 N4          -3.0660    -0.1240     0.3970 nh         1 584      -0.780300
     18 C5          -3.1240    -1.5740     0.7290 c3         1 584       0.237800
     19 C6          -2.9760    -2.4980    -0.5030 c3         1 584      -0.098400
     20 C7          -3.1530    -4.0100    -0.2020 c3         1 584      -0.056700
     21 C8          -4.3420     0.6680     0.5250 c6         1 584       0.165500
     22 C9          -4.2500     2.2270     0.3870 c          1 584       0.566000
     23 N5          -2.9650     2.7840     0.1650 n          1 584      -0.191400
     24 C10         -5.4050     0.1360    -0.4850 c3         1 584      -0.112100
     25 F1           6.0300    -1.7960     1.2130 f          1 584      -0.170500
     26 F2           5.3350     2.0090    -1.6110 f          1 584      -0.170500
     27 H1           7.5550    -0.4460     0.1840 ho         1 584       0.474000
     28 H2          -3.3390    -5.8980    -1.2960 hc         1 584       0.034033
     29 H3          -3.9500    -4.4900    -2.1840 hc         1 584       0.034033
     30 H4          -2.1980    -4.7490    -2.0310 hc         1 584       0.034033
     31 H5          -1.0780    -4.3870     0.3990 hc         1 584       0.034033
     32 H6          -2.1730    -4.0670     1.7640 hc         1 584       0.034033
     33 H7          -2.2250    -5.6300     0.9410 hc         1 584       0.034033
     34 H8          -3.8250     4.6860    -0.3490 h1         1 584       0.053367
     35 H9          -2.4440     4.7460     0.7790 h1         1 584       0.053367
     36 H10         -2.1860     4.4100    -0.9590 h1         1 584       0.053367
     37 H11          3.4280    -1.8820     1.3350 ha         1 584       0.155000
     38 H12          2.8130     1.5370    -1.2270 ha         1 584       0.155000
     39 H13         -0.3140     3.6130     0.0590 h4         1 584       0.028100
     40 H14          1.3200    -1.3150     0.5360 hn         1 584       0.511000
     41 H15         -2.3460    -1.8160     1.4650 h1         1 584       0.056200
     42 H16         -4.0780    -1.8050     1.2220 h1         1 584       0.056200
     43 H17         -3.7190    -2.1980    -1.2510 hc         1 584       0.052700
     44 H18         -1.9940    -2.3340    -0.9630 hc         1 584       0.052700
     45 H19         -4.1370    -4.1430     0.2670 hc         1 584       0.041700
     46 H20         -4.7440     0.5190     1.5390 h1         1 584       0.084700
     47 H21         -5.6280    -0.9250    -0.3240 hc         1 584       0.054700
     48 H22         -6.3550     0.6740    -0.3880 hc         1 584       0.054700
     49 H23         -5.0580     0.2540    -1.5180 hc         1 584       0.054700
     50 O1          -5.2570     2.9280     0.4690 o          1 584      -0.537000
     51 C13         -2.8530     4.2410    -0.1050 c3         1 584       0.077300
@<TRIPOS>BOND
     1     1    13 ar  
     2     1    14 ar  
     3     1    16 1   
     4     2     3 ar  
     5     2    14 ar  
     6     2    17 1   
     7     3    15 ar  
     8     3    23 1   
     9     4    10 1   
    10     4    27 1   
    11     5    20 1   
    12     5    28 1   
    13     5    29 1   
    14     5    30 1   
    15     6    20 1   
    16     6    31 1   
    17     6    32 1   
    18     6    33 1   
    19     7     8 ar  
    20     7    12 ar  
    21     7    16 1   
    22     8     9 ar  
    23     8    37 1   
    24     9    10 ar  
    25     9    25 1   
    26    10    11 ar  
    27    11    12 ar  
    28    11    26 1   
    29    12    38 1   
    30    13    15 ar  
    31    15    39 1   
    32    16    40 1   
    33    17    18 1   
    34    17    21 1   
    35    18    19 1   
    36    18    41 1   
    37    18    42 1   
    38    19    20 1   
    39    19    43 1   
    40    19    44 1   
    41    20    45 1   
    42    21    22 1   
    43    21    24 1   
    44    21    46 1   
    45    22    23 1   
    46    22    50 2   
    47    23    51 1   
    48    24    47 1   
    49    24    48 1   
    50    24    49 1   
    51    34    51 1   
    52    35    51 1   
    53    36    51 1   
@<TRIPOS>SUBSTRUCTURE
     1 584         1 TEMP              0 ****  ****    0 ROOT
