@<TRIPOS>MOLECULE
585
   57    60     1     0     0
SMALL
No Charge or Current Charge


@<TRIPOS>ATOM
      1 N1           3.8280     1.7340     0.1860 ns         1 585      -0.315900
      2 N2           0.3660    -1.3830     0.5590 nb         1 585      -0.263000
      3 C3           4.1280     0.3810     0.0970 ca         1 585       0.464900
      4 C4           0.9950    -2.5170     0.9170 ca         1 585       0.410900
      5 C5           4.7040     2.7370    -0.1400 c          1 585       0.553000
      6 N6           3.1230    -0.4510     0.4170 nb         1 585      -0.702000
      7 C7          -0.9630    -1.3410     0.7410 ca         1 585       0.414900
      8 O8           6.4100     0.9160    -0.5360 os         1 585      -0.327100
      9 C9           5.9880     2.2590    -0.9150 c6         1 585       0.112000
     10 C11          0.2730    -3.6050     1.4500 ca         1 585      -0.062000
     11 C12         -5.4940     1.3480     0.1120 ca         1 585      -0.004900
     12 C13          5.4320    -0.0220    -0.2510 ca         1 585       0.011100
     13 C14          3.3990    -1.7610     0.3820 ca         1 585       0.619900
     14 C15         -5.2440    -0.0400    -0.1140 ca         1 585       0.185600
     15 C16         -4.4050     2.1980     0.4170 ca         1 585       0.185600
     16 N17         -1.7360    -2.3130     1.2620 nb         1 585      -0.241000
     17 C18         -2.8630     0.3220     0.3050 ca         1 585       0.387000
     18 C19         -3.9230    -0.5290    -0.0190 ca         1 585      -0.275500
     19 C20         -3.0980     1.6800     0.5060 ca         1 585      -0.275500
     20 N21         -1.5540    -0.1350     0.3920 nu         1 585      -0.924900
     21 C22         -1.1130    -3.4540     1.6120 ca         1 585       0.141900
     22 O23          4.5370     3.8800     0.2690 o          1 585      -0.518000
     23 C24          5.7190    -1.3920    -0.2570 ca         1 585      -0.042000
     24 F25          0.8860    -4.7630     1.8030 f          1 585      -0.174000
     25 C26          4.6700    -2.2750     0.0660 ca         1 585      -0.217000
     26 O28         -4.6620     3.5430     0.6260 os         1 585      -0.323600
     27 O29         -6.2810    -0.9030    -0.4300 os         1 585      -0.323600
     28 C30          5.7140     2.2500    -2.4460 c3         1 585      -0.097600
     29 C31          7.2060     3.1770    -0.6070 c3         1 585      -0.097600
     30 C32         -7.9860     1.2660    -0.2340 c3         1 585       0.146900
     31 C33         -3.6290     4.4930     0.9430 c3         1 585       0.145900
     32 C34         -6.0970    -2.3120    -0.6520 c3         1 585       0.145900
     33 HN1          2.9810     1.9810     0.6780 hn         1 585       0.179000
     34 HN10         2.7150    -3.5670     0.8810 hn         1 585       0.519000
     35 H19         -3.7050    -1.5700    -0.2150 ha         1 585       0.138500
     36 H20         -2.2570     2.3220     0.7430 ha         1 585       0.138500
     37 HN21        -0.8620     0.5970     0.2480 hn         1 585       0.514000
     38 H22         -1.7300    -4.2510     2.0250 h4         1 585       0.038100
     39 H24          6.7140    -1.7570    -0.5050 ha         1 585       0.139000
     40 H26          4.8440    -3.3470     0.0690 ha         1 585       0.131000
     41 H30          5.4700     3.2550    -2.8120 hc         1 585       0.057533
     42 H30A         6.5880     1.8960    -3.0060 hc         1 585       0.057533
     43 H30B         4.8710     1.5950    -2.6980 hc         1 585       0.057533
     44 H31          7.4190     3.2030     0.4680 hc         1 585       0.057533
     45 H31A         8.1110     2.8240    -1.1170 hc         1 585       0.057533
     46 H31B         7.0250     4.2080    -0.9350 hc         1 585       0.057533
     47 H32         -7.9620     0.8100    -1.2320 h1         1 585       0.031700
     48 H32A        -8.1850     0.4900     0.5160 h1         1 585       0.031700
     49 H32B        -8.8230     1.9760    -0.2120 h1         1 585       0.031700
     50 H33         -2.8820     4.5410     0.1410 h1         1 585       0.042033
     51 H33A        -4.0600     5.4950     1.0650 h1         1 585       0.042033
     52 H33B        -3.1260     4.2250     1.8810 h1         1 585       0.042033
     53 H34         -5.4250    -2.4900    -1.5010 h1         1 585       0.042033
     54 H34A        -5.6780    -2.7960     0.2400 h1         1 585       0.042033
     55 H34B        -7.0590    -2.7890    -0.8750 h1         1 585       0.042033
     56 N10          2.3770    -2.6230     0.7240 nu         1 585      -0.903800
     57 O27         -6.7520     1.9510     0.0490 os         1 585      -0.323100
@<TRIPOS>BOND
     1     1     3 1   
     2     1     5 1   
     3     1    33 1   
     4     2     4 ar  
     5     2     7 ar  
     6     3     6 ar  
     7     3    12 ar  
     8     4    10 ar  
     9     4    56 1   
    10     5     9 1   
    11     5    22 2   
    12     6    13 ar  
    13     7    16 ar  
    14     7    20 1   
    15     8     9 1   
    16     8    12 1   
    17     9    28 1   
    18     9    29 1   
    19    10    21 ar  
    20    10    24 1   
    21    11    14 ar  
    22    11    15 ar  
    23    11    57 1   
    24    12    23 ar  
    25    13    25 ar  
    26    13    56 1   
    27    14    18 ar  
    28    14    27 1   
    29    15    19 ar  
    30    15    26 1   
    31    16    21 ar  
    32    17    18 ar  
    33    17    19 ar  
    34    17    20 1   
    35    18    35 1   
    36    19    36 1   
    37    20    37 1   
    38    21    38 1   
    39    23    25 ar  
    40    23    39 1   
    41    25    40 1   
    42    26    31 1   
    43    27    32 1   
    44    28    41 1   
    45    28    42 1   
    46    28    43 1   
    47    29    44 1   
    48    29    45 1   
    49    29    46 1   
    50    30    47 1   
    51    30    48 1   
    52    30    49 1   
    53    30    57 1   
    54    31    50 1   
    55    31    51 1   
    56    31    52 1   
    57    32    53 1   
    58    32    54 1   
    59    32    55 1   
    60    34    56 1   
@<TRIPOS>SUBSTRUCTURE
     1 585         1 TEMP              0 ****  ****    0 ROOT
