@<TRIPOS>MOLECULE
585
   57    60     1     0     0
SMALL
abcg2


@<TRIPOS>ATOM
      1 N1           3.6060     1.7100     0.6430 ns         1 585      -0.315900
      2 N2           0.3900    -1.5530     0.1970 nb         1 585      -0.263000
      3 C3           3.9540     0.3890     0.4110 ca         1 585       0.464900
      4 C4           1.0220    -2.6970     0.3410 ca         1 585       0.410900
      5 C5           4.4200     2.7560     0.3510 c          1 585       0.553000
      6 N6           3.0090    -0.5240     0.4830 nb         1 585      -0.702000
      7 C7          -0.9470    -1.5660     0.1860 ca         1 585       0.414900
      8 O8           6.1990     1.1100     0.1470 os         1 585      -0.327100
      9 C9           5.7390     2.3790    -0.3360 c6         1 585       0.112000
     10 C11          0.2700    -3.8840     0.4660 ca         1 585      -0.062000
     11 C12         -5.3910     1.1790    -0.1900 ca         1 585      -0.004900
     12 C13          5.2890     0.1120     0.1410 ca         1 585       0.011100
     13 C14          3.3430    -1.7860     0.2710 ca         1 585       0.619900
     14 C15         -5.1970    -0.1950    -0.0500 ca         1 585       0.185600
     15 C16         -4.2740     2.0190    -0.2320 ca         1 585       0.185600
     16 N17         -1.7220    -2.6320     0.2970 nb         1 585      -0.241000
     17 C18         -2.8120     0.1080    -0.0220 ca         1 585       0.387000
     18 C19         -3.9160    -0.7400     0.0290 ca         1 585      -0.275500
     19 C20         -2.9930     1.4890    -0.1520 ca         1 585      -0.275500
     20 N21         -1.4940    -0.3240     0.0430 nu         1 585      -0.924900
     21 C22         -1.0870    -3.8000     0.4350 ca         1 585       0.141900
     22 O23          4.1030     3.9080     0.5620 o          1 585      -0.518000
     23 C24          5.6350    -1.2060    -0.0830 ca         1 585      -0.042000
     24 F25          0.9040    -5.0610     0.6080 f          1 585      -0.174000
     25 C26          4.6520    -2.1790    -0.0150 ca         1 585      -0.217000
     26 O28         -4.5400     3.3300    -0.3580 os         1 585      -0.323600
     27 O29         -6.3190    -0.9340    -0.0040 os         1 585      -0.323600
     28 C30          5.5000     2.3220    -1.8430 c3         1 585      -0.097600
     29 C31          6.8300     3.3730     0.0120 c3         1 585      -0.097600
     30 C32         -7.2290     2.0570     0.9510 c3         1 585       0.146900
     31 C33         -3.4600     4.2420    -0.3820 c3         1 585       0.145900
     32 C34         -6.2030    -2.3380     0.1090 c3         1 585       0.145900
     33 HN1          2.6790     1.9020     0.9990 hn         1 585       0.179000
     34 HN10         2.7510    -3.7190     0.3710 hn         1 585       0.519000
     35 H19         -3.7660    -1.8010     0.1340 ha         1 585       0.138500
     36 H20         -2.1250     2.1340    -0.1840 ha         1 585       0.138500
     37 HN21        -0.7970     0.4030    -0.0210 hn         1 585       0.514000
     38 H22         -1.6970    -4.6920     0.5280 h4         1 585       0.038100
     39 H24          6.6620    -1.4740    -0.2980 ha         1 585       0.139000
     40 H26          4.8960    -3.2170    -0.1920 ha         1 585       0.131000
     41 H30          5.1890     3.2980    -2.2140 hc         1 585       0.057533
     42 H30A         6.4240     2.0450    -2.3500 hc         1 585       0.057533
     43 H30B         4.7300     1.5990    -2.1180 hc         1 585       0.057533
     44 H31          6.9940     3.4300     1.0880 hc         1 585       0.057533
     45 H31A         7.7630     3.0740    -0.4660 hc         1 585       0.057533
     46 H31B         6.5720     4.3660    -0.3490 hc         1 585       0.057533
     47 H32         -7.3170     1.2000     1.6240 h1         1 585       0.031700
     48 H32A        -6.6550     2.8390     1.4540 h1         1 585       0.031700
     49 H32B        -8.2270     2.4380     0.7420 h1         1 585       0.031700
     50 H33         -2.7900     4.0630    -1.2270 h1         1 585       0.042033
     51 H33A        -3.8960     5.2320    -0.4860 h1         1 585       0.042033
     52 H33B        -2.8770     4.2100     0.5420 h1         1 585       0.042033
     53 H34         -5.6600    -2.7730    -0.7340 h1         1 585       0.042033
     54 H34A        -5.7080    -2.6350     1.0370 h1         1 585       0.042033
     55 H34B        -7.2170    -2.7310     0.1130 h1         1 585       0.042033
     56 N10          2.3780    -2.7820     0.3620 nu         1 585      -0.903800
     57 O27         -6.6470     1.6930    -0.2930 os         1 585      -0.323100
@<TRIPOS>BOND
     1     1     3 1   
     2     1     5 1   
     3     1    33 1   
     4     2     4 ar  
     5     2     7 ar  
     6     3     6 ar  
     7     3    12 ar  
     8     4    10 ar  
     9     4    56 1   
    10     5     9 1   
    11     5    22 2   
    12     6    13 ar  
    13     7    16 ar  
    14     7    20 1   
    15     8     9 1   
    16     8    12 1   
    17     9    28 1   
    18     9    29 1   
    19    10    21 ar  
    20    10    24 1   
    21    11    14 ar  
    22    11    15 ar  
    23    11    57 1   
    24    12    23 ar  
    25    13    25 ar  
    26    13    56 1   
    27    14    18 ar  
    28    14    27 1   
    29    15    19 ar  
    30    15    26 1   
    31    16    21 ar  
    32    17    18 ar  
    33    17    19 ar  
    34    17    20 1   
    35    18    35 1   
    36    19    36 1   
    37    20    37 1   
    38    21    38 1   
    39    23    25 ar  
    40    23    39 1   
    41    25    40 1   
    42    26    31 1   
    43    27    32 1   
    44    28    41 1   
    45    28    42 1   
    46    28    43 1   
    47    29    44 1   
    48    29    45 1   
    49    29    46 1   
    50    30    47 1   
    51    30    48 1   
    52    30    49 1   
    53    30    57 1   
    54    31    50 1   
    55    31    51 1   
    56    31    52 1   
    57    32    53 1   
    58    32    54 1   
    59    32    55 1   
    60    34    56 1   
@<TRIPOS>SUBSTRUCTURE
     1 585         1 TEMP              0 ****  ****    0 ROOT
