@<TRIPOS>MOLECULE
586
  111   114     1     0     0
SMALL
No Charge or Current Charge


@<TRIPOS>ATOM
      1 O6          -5.7320     3.3000    -1.0640 o          1 586      -0.587100
      2 C34         -4.8050     2.6060    -0.6710 c          1 586       0.614700
      3 N4          -3.5070     3.0700    -0.6630 ns         1 586      -0.507900
      4 C35         -3.0670     4.3920    -1.0910 c3         1 586       0.173000
      5 C36         -1.6730     4.6600    -0.5240 ca         1 586      -0.122300
      6 C42         -0.5780     3.8460    -0.8880 ca         1 586      -0.107000
      7 C41          0.6990     4.0890    -0.3530 ca         1 586      -0.113500
      8 C40          0.8930     5.1440     0.5540 ca         1 586      -0.096000
      9 C39         -0.1920     5.9570     0.9240 ca         1 586      -0.113500
     10 C38         -1.4700     5.7140     0.3890 ca         1 586      -0.107000
     11 C37         -3.1050     4.5360    -2.6260 c3         1 586      -0.099100
     12 C30         -5.0120     1.1940    -0.1520 ca         1 586      -0.143600
     13 C31         -6.3020     0.6210    -0.1810 ca         1 586      -0.058000
     14 C32         -6.5540    -0.6810     0.3040 ca         1 586       0.262000
     15 N5          -7.8870    -1.1870     0.2480 nh         1 586      -0.780300
     16 S           -8.2490    -2.8790     0.1080 s6         1 586       1.202100
     17 O8          -7.1440    -3.4950    -0.6330 o          1 586      -0.529000
     18 C44         -8.2270    -3.4920     1.7860 c3         1 586      -0.349100
     19 O7          -9.6180    -2.9820    -0.4050 o          1 586      -0.529000
     20 C43         -9.0480    -0.2980     0.4770 c3         1 586       0.199100
     21 C33         -5.4630    -1.4170     0.8210 ca         1 586      -0.024000
     22 C29         -3.9460     0.4320     0.3740 ca         1 586      -0.077000
     23 C27         -4.1590    -0.8780     0.8590 ca         1 586      -0.145600
     24 C28         -3.0270    -1.6970     1.4440 c          1 586       0.620700
     25 O5          -3.2120    -2.7280     2.0740 o          1 586      -0.585100
     26 N1          -1.7650    -1.1870     1.2540 ns         1 586      -0.519900
     27 C5          -0.5210    -1.6890     1.8570 c3         1 586       0.082700
     28 C6          -0.0030    -2.9710     1.1490 c3         1 586       0.156600
     29 O2           0.3860    -2.6320    -0.1980 os         1 586      -0.344100
     30 C21          1.0330    -3.5240    -1.0230 ca         1 586       0.203100
     31 C26          1.4770    -3.0550    -2.2670 ca         1 586      -0.240500
     32 C25          2.1580    -3.9130    -3.1390 ca         1 586       0.239000
     33 F54          2.5860    -3.4530    -4.3340 f          1 586      -0.169000
     34 C24          2.3980    -5.2440    -2.7800 ca         1 586      -0.237000
     35 C23          1.9520    -5.7130    -1.5390 ca         1 586       0.239000
     36 F55          2.1810    -6.9970    -1.1880 f          1 586      -0.169000
     37 C22          1.2710    -4.8630    -0.6570 ca         1 586      -0.240500
     38 C1           0.5440    -0.5500     1.8730 c3         1 586       0.156300
     39 O1           0.6450     0.0210     0.5580 oh         1 586      -0.654000
     40 C3           0.2150     0.5870     2.8730 c3         1 586      -0.141400
     41 C2           1.1400     1.8410     2.7790 c3         1 586       0.094300
     42 O9           0.8160     2.7350     3.8800 os         1 586      -0.419000
     43 C45         -0.4600     3.4020     3.8080 c3         1 586       0.137900
     44 C4           2.6630     1.4850     2.7730 c          1 586       0.606100
     45 O3           3.3900     1.5840     3.7550 o          1 586      -0.579100
     46 N2           3.1650     1.1370     1.5350 ns         1 586      -0.498900
     47 C8           4.5820     0.8350     1.2200 c3         1 586       0.033700
     48 C10          4.8890    -0.6990     1.2590 c3         1 586      -0.067700
     49 C12          4.7080    -1.3070     2.6700 c3         1 586      -0.090600
     50 C11          4.1050    -1.5080     0.1950 c3         1 586      -0.090600
     51 C9           4.9750     1.4850    -0.1430 c          1 586       0.591100
     52 O4           4.1640     2.0150    -0.8940 o          1 586      -0.615100
     53 N3           6.3140     1.4290    -0.4580 ns         1 586      -0.498900
     54 C13          6.8910     1.9530    -1.6920 c3         1 586       0.144300
     55 C14          8.3640     1.5910    -1.7960 ca         1 586      -0.116300
     56 C19          9.3520     2.4930    -1.3540 ca         1 586      -0.097000
     57 C18         10.7130     2.1520    -1.4460 ca         1 586      -0.111500
     58 C17         11.0930     0.9090    -1.9780 ca         1 586      -0.103000
     59 C16         10.1110     0.0050    -2.4180 ca         1 586      -0.111500
     60 C15          8.7500     0.3450    -2.3270 ca         1 586      -0.097000
     61 HN4         -2.8000     2.4410    -0.3140 hn         1 586       0.309500
     62 H35         -3.7630     5.1300    -0.6670 h1         1 586       0.054700
     63 H42         -0.7130     3.0220    -1.5850 ha         1 586       0.114000
     64 H41          1.5380     3.4570    -0.6400 ha         1 586       0.126000
     65 H40          1.8810     5.3300     0.9700 ha         1 586       0.128000
     66 H39         -0.0430     6.7730     1.6270 ha         1 586       0.126000
     67 H38         -2.3020     6.3480     0.6870 ha         1 586       0.114000
     68 H37         -4.1270     4.4230    -3.0040 hc         1 586       0.051033
     69 H37A        -2.7420     5.5270    -2.9230 hc         1 586       0.051033
     70 H37B        -2.4760     3.7800    -3.1100 hc         1 586       0.051033
     71 H31         -7.1220     1.1950    -0.6010 ha         1 586       0.146000
     72 H44         -8.9940    -2.9430     2.3410 h1         1 586       0.105367
     73 H44A        -8.4630    -4.5600     1.7430 h1         1 586       0.105367
     74 H44B        -7.2380    -3.3270     2.2180 h1         1 586       0.105367
     75 H43         -9.4870     0.0160    -0.4800 h1         1 586       0.052700
     76 H43A        -9.8240    -0.7990     1.0720 h1         1 586       0.052700
     77 H43B        -8.7490     0.6000     1.0340 h1         1 586       0.052700
     78 H33         -5.6110    -2.4180     1.2030 ha         1 586       0.141000
     79 H29         -2.9540     0.8670     0.4270 ha         1 586       0.113000
     80 HN1         -1.6930    -0.3540     0.6850 hn         1 586       0.331500
     81 H5          -0.7350    -1.9630     2.9000 h1         1 586       0.098700
     82 H6           0.8580    -3.3570     1.7100 h1         1 586       0.052700
     83 H6A         -0.7860    -3.7400     1.1480 h1         1 586       0.052700
     84 H26          1.2990    -2.0230    -2.5540 ha         1 586       0.143500
     85 H24          2.9260    -5.9080    -3.4590 ha         1 586       0.154000
     86 H22          0.9390    -5.2610     0.2960 ha         1 586       0.143500
     87 H1           1.5040    -0.9960     2.1700 h1         1 586       0.085700
     88 HO1          0.6050    -0.7410    -0.0660 ho         1 586       0.442000
     89 H3          -0.8220     0.9000     2.7080 hc         1 586       0.066200
     90 H3A          0.2650     0.1810     3.8910 hc         1 586       0.066200
     91 H2           0.9430     2.3470     1.8260 h1         1 586       0.051700
     92 H45         -0.5880     3.9000     2.8390 h1         1 586       0.032367
     93 H45A        -1.2880     2.6960     3.9500 h1         1 586       0.032367
     94 H45B        -0.5340     4.1630     4.5940 h1         1 586       0.032367
     95 HN2          2.4810     1.0670     0.7850 hn         1 586       0.344500
     96 H8           5.2160     1.3260     1.9700 h1         1 586       0.086700
     97 H10          5.9520    -0.8210     1.0190 hc         1 586       0.048700
     98 H12          3.6580    -1.2900     2.9820 hc         1 586       0.039867
     99 H12A         5.0470    -2.3500     2.6860 hc         1 586       0.039867
    100 H12B         5.2960    -0.7510     3.4100 hc         1 586       0.039867
    101 H11          4.2970    -1.1260    -0.8150 hc         1 586       0.039867
    102 H11A         4.4060    -2.5630     0.2140 hc         1 586       0.039867
    103 H11B         3.0260    -1.4650     0.3780 hc         1 586       0.039867
    104 HN3          6.9320     0.9800     0.2070 hn         1 586       0.317500
    105 H13          6.3460     1.5380    -2.5500 h1         1 586       0.065700
    106 H13A         6.7700     3.0450    -1.7080 h1         1 586       0.065700
    107 H19          9.0660     3.4570    -0.9380 ha         1 586       0.114500
    108 H18         11.4720     2.8520    -1.1030 ha         1 586       0.114500
    109 H17         12.1470     0.6460    -2.0490 ha         1 586       0.114000
    110 H16         10.4050    -0.9590    -2.8290 ha         1 586       0.114500
    111 H15          7.9960    -0.3620    -2.6670 ha         1 586       0.114500
@<TRIPOS>BOND
     1     1     2 2   
     2     2     3 1   
     3     2    12 1   
     4     3     4 1   
     5     3    61 1   
     6     4     5 1   
     7     4    11 1   
     8     4    62 1   
     9     5     6 ar  
    10     5    10 ar  
    11     6     7 ar  
    12     6    63 1   
    13     7     8 ar  
    14     7    64 1   
    15     8     9 ar  
    16     8    65 1   
    17     9    10 ar  
    18     9    66 1   
    19    10    67 1   
    20    11    68 1   
    21    11    69 1   
    22    11    70 1   
    23    12    13 ar  
    24    12    22 ar  
    25    13    14 ar  
    26    13    71 1   
    27    14    15 1   
    28    14    21 ar  
    29    15    16 1   
    30    15    20 1   
    31    16    17 2   
    32    16    18 1   
    33    16    19 2   
    34    18    72 1   
    35    18    73 1   
    36    18    74 1   
    37    20    75 1   
    38    20    76 1   
    39    20    77 1   
    40    21    23 ar  
    41    21    78 1   
    42    22    23 ar  
    43    22    79 1   
    44    23    24 1   
    45    24    25 2   
    46    24    26 1   
    47    26    27 1   
    48    26    80 1   
    49    27    28 1   
    50    27    38 1   
    51    27    81 1   
    52    28    29 1   
    53    28    82 1   
    54    28    83 1   
    55    29    30 1   
    56    30    31 ar  
    57    30    37 ar  
    58    31    32 ar  
    59    31    84 1   
    60    32    33 1   
    61    32    34 ar  
    62    34    35 ar  
    63    34    85 1   
    64    35    36 1   
    65    35    37 ar  
    66    37    86 1   
    67    38    39 1   
    68    38    40 1   
    69    38    87 1   
    70    39    88 1   
    71    40    41 1   
    72    40    89 1   
    73    40    90 1   
    74    41    42 1   
    75    41    44 1   
    76    41    91 1   
    77    42    43 1   
    78    43    92 1   
    79    43    93 1   
    80    43    94 1   
    81    44    45 2   
    82    44    46 1   
    83    46    47 1   
    84    46    95 1   
    85    47    48 1   
    86    47    51 1   
    87    47    96 1   
    88    48    49 1   
    89    48    50 1   
    90    48    97 1   
    91    49    98 1   
    92    49    99 1   
    93    49   100 1   
    94    50   101 1   
    95    50   102 1   
    96    50   103 1   
    97    51    52 2   
    98    51    53 1   
    99    53    54 1   
   100    53   104 1   
   101    54    55 1   
   102    54   105 1   
   103    54   106 1   
   104    55    56 ar  
   105    55    60 ar  
   106    56    57 ar  
   107    56   107 1   
   108    57    58 ar  
   109    57   108 1   
   110    58    59 ar  
   111    58   109 1   
   112    59    60 ar  
   113    59   110 1   
   114    60   111 1   
@<TRIPOS>SUBSTRUCTURE
     1 586         1 TEMP              0 ****  ****    0 ROOT
