@<TRIPOS>MOLECULE
586
  111   114     1     0     0
SMALL
abcg2


@<TRIPOS>ATOM
      1 O6          -5.3570     2.6440    -1.6810 o          1 586      -0.587100
      2 C34         -4.4770     2.1970    -0.9640 c          1 586       0.614700
      3 N4          -3.2530     2.7420    -0.8300 ns         1 586      -0.507900
      4 C35         -2.7430     3.9250    -1.5180 c3         1 586       0.173000
      5 C36         -1.3030     4.0920    -1.0820 ca         1 586      -0.122300
      6 C42         -0.3660     3.0940    -1.3530 ca         1 586      -0.107000
      7 C41          0.9560     3.2390    -0.9600 ca         1 586      -0.113500
      8 C40          1.3600     4.3830    -0.2810 ca         1 586      -0.096000
      9 C39          0.4350     5.3790    -0.0050 ca         1 586      -0.113500
     10 C38         -0.8890     5.2330    -0.4040 ca         1 586      -0.107000
     11 C37         -2.8430     3.8120    -3.0370 c3         1 586      -0.099100
     12 C30         -4.6900     0.9570    -0.1460 ca         1 586      -0.143600
     13 C31         -5.9850     0.5810     0.1900 ca         1 586      -0.058000
     14 C32         -6.2050    -0.5320     0.9940 ca         1 586       0.262000
     15 N5          -7.5170    -0.8820     1.3890 nh         1 586      -0.780300
     16 S           -8.1500    -2.3370     0.8510 s6         1 586       1.202100
     17 O8          -7.0780    -3.0590     0.1860 o          1 586      -0.529000
     18 C44         -8.5620    -3.1710     2.3600 c3         1 586      -0.349100
     19 O7          -9.3830    -2.0760     0.1240 o          1 586      -0.529000
     20 C43         -8.4790     0.1840     1.6550 c3         1 586       0.199100
     21 C33         -5.1250    -1.2680     1.4710 ca         1 586      -0.024000
     22 C29         -3.6260     0.1690     0.2670 ca         1 586      -0.077000
     23 C27         -3.8360    -0.9390     1.0800 ca         1 586      -0.145600
     24 C28         -2.6670    -1.6690     1.6590 c          1 586       0.620700
     25 O5          -2.6970    -2.1050     2.7970 o          1 586      -0.585100
     26 N1          -1.5820    -1.7280     0.8560 ns         1 586      -0.519900
     27 C5          -0.2480    -2.0500     1.3140 c3         1 586       0.082700
     28 C6           0.3550    -3.1630     0.4720 c3         1 586       0.156600
     29 O2           0.2600    -2.8000    -0.8920 os         1 586      -0.344100
     30 C21          0.6650    -3.6590    -1.8360 ca         1 586       0.203100
     31 C26          0.4790    -3.2410    -3.1560 ca         1 586      -0.240500
     32 C25          0.8770    -4.0810    -4.1700 ca         1 586       0.239000
     33 F54          0.6980    -3.6830    -5.4350 f          1 586      -0.169000
     34 C24          1.4530    -5.3220    -3.9520 ca         1 586      -0.237000
     35 C23          1.6180    -5.6880    -2.6330 ca         1 586       0.239000
     36 F55          2.1750    -6.8770    -2.3700 f          1 586      -0.169000
     37 C22          1.2440    -4.8970    -1.5620 ca         1 586      -0.240500
     38 C1           0.6290    -0.7850     1.3940 c3         1 586       0.156300
     39 O1           0.8560    -0.1950     0.1330 oh         1 586      -0.654000
     40 C3           0.0690     0.2140     2.4050 c3         1 586      -0.141400
     41 C2           0.7610     1.5850     2.4080 c3         1 586       0.094300
     42 O9           0.1790     2.4530     3.3420 os         1 586      -0.419000
     43 C45         -1.0170     3.0480     2.8990 c3         1 586       0.137900
     44 C4           2.2390     1.4720     2.7800 c          1 586       0.606100
     45 O3           2.6190     1.5570     3.9340 o          1 586      -0.579100
     46 N2           3.0480     1.2610     1.7290 ns         1 586      -0.498900
     47 C8           4.4830     1.1880     1.8040 c3         1 586       0.033700
     48 C10          5.0270    -0.2570     1.7170 c3         1 586      -0.067700
     49 C12          4.5680    -1.0810     2.9140 c3         1 586      -0.090600
     50 C11          4.6660    -0.9470     0.4060 c3         1 586      -0.090600
     51 C9           5.0630     2.0430     0.6770 c          1 586       0.591100
     52 O4           4.4190     2.3010    -0.3300 o          1 586      -0.615100
     53 N3           6.3280     2.4340     0.8820 ns         1 586      -0.498900
     54 C13          7.1340     3.1560    -0.0770 c3         1 586       0.144300
     55 C14          8.2710     2.3210    -0.6130 ca         1 586      -0.116300
     56 C19          9.5870     2.7450    -0.4720 ca         1 586      -0.097000
     57 C18         10.6360     1.9780    -0.9670 ca         1 586      -0.111500
     58 C17         10.3770     0.7740    -1.6040 ca         1 586      -0.103000
     59 C16          9.0620     0.3430    -1.7500 ca         1 586      -0.111500
     60 C15          8.0190     1.1120    -1.2590 ca         1 586      -0.097000
     61 HN4         -2.7180     2.4570    -0.0270 hn         1 586       0.309500
     62 H35         -3.3080     4.8050    -1.1940 h1         1 586       0.054700
     63 H42         -0.6640     2.2020    -1.8940 ha         1 586       0.114000
     64 H41          1.6780     2.4650    -1.1900 ha         1 586       0.126000
     65 H40          2.3910     4.4920     0.0290 ha         1 586       0.128000
     66 H39          0.7400     6.2720     0.5240 ha         1 586       0.126000
     67 H38         -1.6080     6.0130    -0.1810 ha         1 586       0.114000
     68 H37         -3.8770     3.7840    -3.3710 hc         1 586       0.051033
     69 H37A        -2.3660     4.6800    -3.4920 hc         1 586       0.051033
     70 H37B        -2.3370     2.9170    -3.4000 hc         1 586       0.051033
     71 H31         -6.8180     1.1720    -0.1650 ha         1 586       0.146000
     72 H44         -9.2590    -2.5670     2.9370 h1         1 586       0.105367
     73 H44A        -9.0290    -4.1180     2.0970 h1         1 586       0.105367
     74 H44B        -7.6540    -3.3450     2.9310 h1         1 586       0.105367
     75 H43         -8.8750     0.6460     0.7500 h1         1 586       0.052700
     76 H43A        -9.3130    -0.1990     2.2400 h1         1 586       0.052700
     77 H43B        -7.9850     0.9430     2.2560 h1         1 586       0.052700
     78 H33         -5.2850    -2.0920     2.1540 ha         1 586       0.141000
     79 H29         -2.6180     0.4220    -0.0330 ha         1 586       0.113000
     80 HN1         -1.7140    -1.5650    -0.1300 hn         1 586       0.331500
     81 H5          -0.3270    -2.4490     2.3270 h1         1 586       0.098700
     82 H6           1.3970    -3.3250     0.7680 h1         1 586       0.052700
     83 H6A         -0.1960    -4.0910     0.6590 h1         1 586       0.052700
     84 H26          0.0320    -2.2800    -3.3720 ha         1 586       0.143500
     85 H24          1.7530    -5.9640    -4.7680 ha         1 586       0.154000
     86 H22          1.4110    -5.2540    -0.5550 ha         1 586       0.143500
     87 H1           1.6150    -1.1160     1.7330 h1         1 586       0.085700
     88 HO1          0.0260     0.1220    -0.2370 ho         1 586       0.442000
     89 H3          -0.9920     0.3890     2.1970 hc         1 586       0.066200
     90 H3A          0.1190    -0.2210     3.4070 hc         1 586       0.066200
     91 H2           0.6840     2.0260     1.4050 h1         1 586       0.051700
     92 H45         -0.8950     3.5250     1.9190 h1         1 586       0.032367
     93 H45A        -1.8500     2.3390     2.8360 h1         1 586       0.032367
     94 H45B        -1.2900     3.8170     3.6200 h1         1 586       0.032367
     95 HN2          2.6440     1.2480     0.8040 hn         1 586       0.344500
     96 H8           4.7930     1.6080     2.7640 h1         1 586       0.086700
     97 H10          6.1170    -0.1810     1.7700 hc         1 586       0.048700
     98 H12          3.4860    -1.2210     2.9200 hc         1 586       0.039867
     99 H12A         5.0240    -2.0710     2.8850 hc         1 586       0.039867
    100 H12B         4.8480    -0.6110     3.8570 hc         1 586       0.039867
    101 H11          5.0820    -0.4380    -0.4640 hc         1 586       0.039867
    102 H11A         5.0570    -1.9650     0.4010 hc         1 586       0.039867
    103 H11B         3.5860    -1.0160     0.2630 hc         1 586       0.039867
    104 HN3          6.7690     2.1880     1.7540 hn         1 586       0.317500
    105 H13          6.4840     3.4820    -0.8880 h1         1 586       0.065700
    106 H13A         7.5270     4.0570     0.3970 h1         1 586       0.065700
    107 H19          9.7990     3.6820     0.0290 ha         1 586       0.114500
    108 H18         11.6550     2.3210    -0.8470 ha         1 586       0.114500
    109 H17         11.1920     0.1720    -1.9860 ha         1 586       0.114000
    110 H16          8.8500    -0.5930    -2.2520 ha         1 586       0.114500
    111 H15          6.9990     0.7680    -1.3870 ha         1 586       0.114500
@<TRIPOS>BOND
     1     1     2 2   
     2     2     3 1   
     3     2    12 1   
     4     3     4 1   
     5     3    61 1   
     6     4     5 1   
     7     4    11 1   
     8     4    62 1   
     9     5     6 ar  
    10     5    10 ar  
    11     6     7 ar  
    12     6    63 1   
    13     7     8 ar  
    14     7    64 1   
    15     8     9 ar  
    16     8    65 1   
    17     9    10 ar  
    18     9    66 1   
    19    10    67 1   
    20    11    68 1   
    21    11    69 1   
    22    11    70 1   
    23    12    13 ar  
    24    12    22 ar  
    25    13    14 ar  
    26    13    71 1   
    27    14    15 1   
    28    14    21 ar  
    29    15    16 1   
    30    15    20 1   
    31    16    17 2   
    32    16    18 1   
    33    16    19 2   
    34    18    72 1   
    35    18    73 1   
    36    18    74 1   
    37    20    75 1   
    38    20    76 1   
    39    20    77 1   
    40    21    23 ar  
    41    21    78 1   
    42    22    23 ar  
    43    22    79 1   
    44    23    24 1   
    45    24    25 2   
    46    24    26 1   
    47    26    27 1   
    48    26    80 1   
    49    27    28 1   
    50    27    38 1   
    51    27    81 1   
    52    28    29 1   
    53    28    82 1   
    54    28    83 1   
    55    29    30 1   
    56    30    31 ar  
    57    30    37 ar  
    58    31    32 ar  
    59    31    84 1   
    60    32    33 1   
    61    32    34 ar  
    62    34    35 ar  
    63    34    85 1   
    64    35    36 1   
    65    35    37 ar  
    66    37    86 1   
    67    38    39 1   
    68    38    40 1   
    69    38    87 1   
    70    39    88 1   
    71    40    41 1   
    72    40    89 1   
    73    40    90 1   
    74    41    42 1   
    75    41    44 1   
    76    41    91 1   
    77    42    43 1   
    78    43    92 1   
    79    43    93 1   
    80    43    94 1   
    81    44    45 2   
    82    44    46 1   
    83    46    47 1   
    84    46    95 1   
    85    47    48 1   
    86    47    51 1   
    87    47    96 1   
    88    48    49 1   
    89    48    50 1   
    90    48    97 1   
    91    49    98 1   
    92    49    99 1   
    93    49   100 1   
    94    50   101 1   
    95    50   102 1   
    96    50   103 1   
    97    51    52 2   
    98    51    53 1   
    99    53    54 1   
   100    53   104 1   
   101    54    55 1   
   102    54   105 1   
   103    54   106 1   
   104    55    56 ar  
   105    55    60 ar  
   106    56    57 ar  
   107    56   107 1   
   108    57    58 ar  
   109    57   108 1   
   110    58    59 ar  
   111    58   109 1   
   112    59    60 ar  
   113    59   110 1   
   114    60   111 1   
@<TRIPOS>SUBSTRUCTURE
     1 586         1 TEMP              0 ****  ****    0 ROOT
