@<TRIPOS>MOLECULE
587
  143   148     1     0     0
SMALL
abcg2


@<TRIPOS>ATOM
      1 C1           1.9420    -2.1400     0.9340 c          1 587       0.620100
      2 C2           3.1880    -1.5750     1.5990 c6         1 587       0.033700
      3 C3           4.0400    -2.5980     2.3410 c6         1 587      -0.092400
      4 C4           5.3590    -1.9410     2.7530 c6         1 587      -0.077400
      5 C5           5.1410    -0.6340     3.5120 c6         1 587      -0.116400
      6 C6           4.2010     0.2970     2.7560 c6         1 587       0.089000
      7 C8           1.9390    -0.4330     3.3150 c          1 587       0.504100
      8 C9           1.7230     0.7930     4.2020 c          1 587       0.488100
      9 C10          1.7520     0.5610     5.7310 c6         1 587       0.330000
     10 C11          2.4810     1.7220     6.4540 c6         1 587      -0.057700
     11 C12          1.6160     2.2210     7.6200 c6         1 587      -0.096400
     12 C13          0.9010     1.1160     8.3830 c6         1 587       0.145300
     13 C14          0.0720     0.2650     7.4060 c6         1 587       0.184300
     14 C15         -1.4310     0.4460     7.5820 c3         1 587       0.183300
     15 C16         -2.2740    -0.4410     6.6370 c3         1 587      -0.088400
     16 C17         -2.9620     0.1980     5.4170 c3         1 587      -0.024700
     17 C18         -3.7300    -0.9210     4.6800 c3         1 587       0.201500
     18 C19         -4.6290    -0.3960     3.5750 c2         1 587      -0.153400
     19 C20         -4.1410    -0.2240     2.3450 c2         1 587      -0.210200
     20 C21         -4.8760     0.3490     1.1530 c3         1 587      -0.120500
     21 C22         -3.9970     0.1260    -0.0670 c          1 587       0.577100
     22 C23         -3.7450    -1.3070    -0.4800 c3         1 587      -0.219400
     23 C24         -2.3210    -1.5580    -0.9930 c3         1 587       0.182300
     24 C25         -1.2560    -1.4630     0.1090 c3         1 587      -0.059700
     25 C26          0.1480    -1.4520    -0.5210 c3         1 587       0.222500
     26 C27          0.3370    -0.3730    -1.5560 c2         1 587      -0.115400
     27 C28          0.5300    -0.7270    -2.8270 c2         1 587      -0.212200
     28 C29          0.6430     0.1860    -4.0090 c6         1 587      -0.025500
     29 C30          1.6780    -0.3280    -5.0100 c6         1 587      -0.102400
     30 C31          1.8050     0.6030    -6.2150 c6         1 587       0.156300
     31 C32          0.4550     0.7520    -6.9050 c6         1 587       0.182300
     32 C33         -0.5990     1.2520    -5.9260 c6         1 587      -0.088400
     33 C34         -0.7130     0.3470    -4.7040 c6         1 587      -0.070400
     34 C35          3.9160     1.3990     6.8570 c3         1 587      -0.076100
     35 C36         -2.0520     0.9730     4.4730 c3         1 587      -0.083100
     36 C37         -6.0360    -0.0860     3.9810 c3         1 587      -0.055900
     37 C38         -5.2550     1.8220     1.3340 c3         1 587      -0.063400
     38 C39         -6.2800     2.3150     0.3210 c3         1 587      -0.091100
     39 C41         -1.3900    -2.5730     1.1490 c3         1 587      -0.091100
     40 C42          0.2250     1.0410    -1.0670 c3         1 587      -0.060900
     41 C58          0.2960     1.2990    -9.2450 ca         1 587       0.104100
     42 C59         -0.4430     2.2080   -10.0260 ca         1 587      -0.114000
     43 C60          0.7410     0.1030    -9.7800 ca         1 587      -0.119000
     44 C61          0.4310    -0.1910   -11.1140 ca         1 587      -0.073800
     45 C62         -0.7400     1.9460   -11.3480 ca         1 587      -0.108000
     46 C63         -0.3030     0.7360   -11.8840 ca         1 587      -0.072200
     47 C64          0.7170    -1.2940   -11.9740 cc         1 587      -0.245200
     48 N65         -0.4570     0.2190   -13.1410 na         1 587      -0.088700
     49 C66          0.1600    -0.9980   -13.1860 cd         1 587      -0.159100
     50 C67         -1.1440     0.8690   -14.2290 c3         1 587       0.066900
     51 N7           2.9600    -0.4120     2.4460 n          1 587      -0.350800
     52 O1           1.1440    -1.1850     0.4960 os         1 587      -0.438100
     53 O2           1.8040    -3.3170     0.7190 o          1 587      -0.483000
     54 O3           1.1070    -1.3230     3.3950 o          1 587      -0.572100
     55 O4           1.4440     1.8490     3.7040 o          1 587      -0.457100
     56 O5           0.3990     0.5380     6.0550 os         1 587      -0.453000
     57 O6           2.3900    -0.6410     6.0170 oh         1 587      -0.668000
     58 O7           1.7710     0.2420     9.0740 os         1 587      -0.452000
     59 O8          -1.7570     1.8140     7.5300 os         1 587      -0.445000
     60 O9          -3.5070     1.0470    -0.6830 o          1 587      -0.523100
     61 O10         -2.2120    -2.8380    -1.5770 oh         1 587      -0.655000
     62 O11          2.7310     0.1310    -7.1630 os         1 587      -0.452000
     63 O12          0.5570     1.6910    -7.9690 os         1 587      -0.362100
     64 O13         -2.7820    -1.8510     4.2090 oh         1 587      -0.646000
     65 H2           3.7780    -1.2030     0.7490 h1         1 587       0.077700
     66 H31A         4.2370    -3.4580     1.7010 hc         1 587       0.069700
     67 H32A         3.4990    -2.9630     3.2170 hc         1 587       0.069700
     68 H41          5.9540    -1.7430     1.8550 hc         1 587       0.045700
     69 H42          5.9410    -2.6330     3.3640 hc         1 587       0.045700
     70 H51          6.0920    -0.1250     3.6820 hc         1 587       0.058700
     71 H52          4.7110    -0.8440     4.4960 hc         1 587       0.058700
     72 H61          4.6460     0.6240     1.8140 h1         1 587       0.062700
     73 H62A         3.9940     1.1980     3.3300 h1         1 587       0.062700
     74 H11          2.5370     2.5550     5.7490 hc         1 587       0.062700
     75 H121         2.2270     2.8220     8.2970 hc         1 587       0.059700
     76 H122         0.8440     2.8910     7.2390 hc         1 587       0.059700
     77 H13          0.2300     1.5910     9.1150 h1         1 587       0.046700
     78 H14          0.2700    -0.7910     7.6290 h1         1 587       0.065700
     79 H15         -1.6110     0.0790     8.6060 h1         1 587       0.030700
     80 H161        -3.0670    -0.9020     7.2330 hc         1 587       0.049200
     81 H162        -1.6470    -1.2690     6.3000 hc         1 587       0.049200
     82 H17         -3.7270     0.8870     5.7910 hc         1 587       0.037700
     83 H18         -4.3860    -1.4020     5.4250 h1         1 587       0.023700
     84 H20         -3.0940    -0.4730     2.2020 ha         1 587       0.197000
     85 H21         -5.7910    -0.2380     0.9890 hc         1 587       0.066700
     86 H231        -4.4500    -1.5030    -1.2990 hc         1 587       0.066700
     87 H232        -4.0240    -1.9990     0.3170 hc         1 587       0.066700
     88 H24         -2.1130    -0.7840    -1.7410 h1         1 587       0.051700
     89 H25         -1.3950    -0.4980     0.6100 hc         1 587       0.067700
     90 H26          0.3490    -2.4290    -0.9650 h1         1 587       0.079700
     91 H28          0.5630    -1.7900    -3.0600 ha         1 587       0.173000
     92 H29          0.9630     1.1790    -3.6760 hc         1 587       0.056700
     93 H301         2.6470    -0.4320    -4.5140 hc         1 587       0.050200
     94 H302         1.3910    -1.3270    -5.3570 hc         1 587       0.050200
     95 H31          2.1150     1.6000    -5.8570 h1         1 587       0.045700
     96 H32          0.1460    -0.2270    -7.2930 h1         1 587       0.056700
     97 H331        -1.5610     1.3210    -6.4390 hc         1 587       0.054700
     98 H332        -0.3370     2.2650    -5.6030 hc         1 587       0.054700
     99 H341        -1.0920    -0.6380    -4.9980 hc         1 587       0.046700
    100 H342        -1.4410     0.7640    -4.0050 hc         1 587       0.046700
    101 H351         4.3790     2.2930     7.2750 hc         1 587       0.038367
    102 H352         3.9770     0.6100     7.6030 hc         1 587       0.038367
    103 H353         4.5220     1.0980     6.0000 hc         1 587       0.038367
    104 H361        -2.6410     1.4390     3.6830 hc         1 587       0.046033
    105 H362        -1.5230     1.7620     4.9970 hc         1 587       0.046033
    106 H363        -1.3120     0.3240     4.0070 hc         1 587       0.046033
    107 H371        -6.6880     0.1180     3.1330 hc         1 587       0.041367
    108 H372        -6.4670    -0.9190     4.5410 hc         1 587       0.041367
    109 H373        -6.0720     0.7850     4.6420 hc         1 587       0.041367
    110 H381        -4.3530     2.4370     1.2950 hc         1 587       0.053200
    111 H382        -5.6600     1.9540     2.3380 hc         1 587       0.053200
    112 H391        -6.5540     3.3510     0.5210 hc         1 587       0.034033
    113 H392        -5.9080     2.2660    -0.7010 hc         1 587       0.034033
    114 H393        -7.1940     1.7190     0.3690 hc         1 587       0.034033
    115 H411        -2.4210    -2.6760     1.4880 hc         1 587       0.048033
    116 H412        -1.0740    -3.5370     0.7540 hc         1 587       0.048033
    117 H413        -0.7960    -2.3470     2.0300 hc         1 587       0.048033
    118 H421         0.4900     1.7690    -1.8310 hc         1 587       0.050700
    119 H422        -0.7980     1.2630    -0.7540 hc         1 587       0.050700
    120 H423         0.8670     1.2180    -0.2040 hc         1 587       0.050700
    121 H431         2.8790     0.0140    10.7510 h1         1 587       0.027367
    122 H432         3.1000     1.5850     9.9710 h1         1 587       0.027367
    123 H433         1.6180     1.2530    10.8820 h1         1 587       0.027367
    124 H441        -3.0480     3.2250     8.1970 h1         1 587       0.027700
    125 H442        -3.8150     1.6670     7.8630 h1         1 587       0.027700
    126 H443        -2.8210     1.8680     9.3160 h1         1 587       0.027700
    127 H451         4.6880     0.0570    -7.6740 h1         1 587       0.028033
    128 H452         4.2790     1.3900    -6.5800 h1         1 587       0.028033
    129 H453         4.3960    -0.2650    -5.9600 h1         1 587       0.028033
    130 H59         -0.7800     3.1320    -9.5720 ha         1 587       0.120000
    131 H60          1.3360    -0.5840    -9.1930 ha         1 587       0.135000
    132 H62         -1.3050     2.6590   -11.9340 ha         1 587       0.112000
    133 H64          1.2640    -2.1910   -11.7290 ha         1 587       0.205000
    134 H66          0.1580    -1.5740   -14.0990 h4         1 587       0.207000
    135 H671        -0.6470     1.7980   -14.5080 h1         1 587       0.046700
    136 H672        -1.1510     0.2090   -15.0930 h1         1 587       0.046700
    137 H673        -2.1760     1.0940   -13.9590 h1         1 587       0.046700
    138 HO6          1.8670    -1.3770     5.6730 ho         1 587       0.473000
    139 HO10        -2.7410    -2.8540    -2.3790 ho         1 587       0.439000
    140 HO13        -3.2480    -2.5150     3.6930 ho         1 587       0.440000
    141 C43          2.3650     0.8100    10.2120 c3         1 587       0.147900
    142 C44         -2.9120     2.1450     8.2580 c3         1 587       0.144900
    143 C45          4.0780     0.3390    -6.8170 c3         1 587       0.150900
@<TRIPOS>BOND
     1     1     2 1   
     2     1    52 1   
     3     1    53 2   
     4     2     3 1   
     5     2    51 1   
     6     2    65 1   
     7     3     4 1   
     8     3    66 1   
     9     3    67 1   
    10     4     5 1   
    11     4    68 1   
    12     4    69 1   
    13     5     6 1   
    14     5    70 1   
    15     5    71 1   
    16     6    51 1   
    17     6    72 1   
    18     6    73 1   
    19     7     8 1   
    20     7    51 1   
    21     7    54 2   
    22     8     9 1   
    23     8    55 2   
    24     9    10 1   
    25     9    56 1   
    26     9    57 1   
    27    10    11 1   
    28    10    34 1   
    29    10    74 1   
    30    11    12 1   
    31    11    75 1   
    32    11    76 1   
    33    12    13 1   
    34    12    58 1   
    35    12    77 1   
    36    13    14 1   
    37    13    56 1   
    38    13    78 1   
    39    14    15 1   
    40    14    59 1   
    41    14    79 1   
    42    15    16 1   
    43    15    80 1   
    44    15    81 1   
    45    16    17 1   
    46    16    35 1   
    47    16    82 1   
    48    17    18 1   
    49    17    64 1   
    50    17    83 1   
    51    18    19 2   
    52    18    36 1   
    53    19    20 1   
    54    19    84 1   
    55    20    21 1   
    56    20    37 1   
    57    20    85 1   
    58    21    22 1   
    59    21    60 2   
    60    22    23 1   
    61    22    86 1   
    62    22    87 1   
    63    23    24 1   
    64    23    61 1   
    65    23    88 1   
    66    24    25 1   
    67    24    39 1   
    68    24    89 1   
    69    25    26 1   
    70    25    52 1   
    71    25    90 1   
    72    26    27 2   
    73    26    40 1   
    74    27    28 1   
    75    27    91 1   
    76    28    29 1   
    77    28    33 1   
    78    28    92 1   
    79    29    30 1   
    80    29    93 1   
    81    29    94 1   
    82    30    31 1   
    83    30    62 1   
    84    30    95 1   
    85    31    32 1   
    86    31    63 1   
    87    31    96 1   
    88    32    33 1   
    89    32    97 1   
    90    32    98 1   
    91    33    99 1   
    92    33   100 1   
    93    34   101 1   
    94    34   102 1   
    95    34   103 1   
    96    35   104 1   
    97    35   105 1   
    98    35   106 1   
    99    36   107 1   
   100    36   108 1   
   101    36   109 1   
   102    37    38 1   
   103    37   110 1   
   104    37   111 1   
   105    38   112 1   
   106    38   113 1   
   107    38   114 1   
   108    39   115 1   
   109    39   116 1   
   110    39   117 1   
   111    40   118 1   
   112    40   119 1   
   113    40   120 1   
   114    41    42 ar  
   115    41    43 ar  
   116    41    63 1   
   117    42    45 ar  
   118    42   130 1   
   119    43    44 ar  
   120    43   131 1   
   121    44    46 ar  
   122    44    47 1   
   123    45    46 ar  
   124    45   132 1   
   125    46    48 1   
   126    47    49 2   
   127    47   133 1   
   128    48    49 1   
   129    48    50 1   
   130    49   134 1   
   131    50   135 1   
   132    50   136 1   
   133    50   137 1   
   134    57   138 1   
   135    58   141 1   
   136    59   142 1   
   137    61   139 1   
   138    62   143 1   
   139    64   140 1   
   140   121   141 1   
   141   122   141 1   
   142   123   141 1   
   143   124   142 1   
   144   125   142 1   
   145   126   142 1   
   146   127   143 1   
   147   128   143 1   
   148   129   143 1   
@<TRIPOS>SUBSTRUCTURE
     1 587         1 TEMP              0 ****  ****    0 ROOT
