@<TRIPOS>MOLECULE
587
  143   148     1     0     0
SMALL
No Charge or Current Charge


@<TRIPOS>ATOM
      1 C1           2.4460     0.4800     0.6710 c          1 587       0.620100
      2 C2           2.6660     1.5480     1.7840 c6         1 587       0.033700
      3 C3           3.9350     2.3840     1.4510 c6         1 587      -0.092400
      4 C4           4.2090     3.4870     2.4840 c6         1 587      -0.077400
      5 C5           4.2830     2.8530     3.8800 c6         1 587      -0.116400
      6 C6           2.9470     2.1720     4.2390 c6         1 587       0.089000
      7 C8           1.3610     0.3270     3.6100 c          1 587       0.504100
      8 C9           0.5630     0.6280     4.9490 c          1 587       0.488100
      9 C10          0.3240    -0.5870     5.9230 c6         1 587       0.330000
     10 C11          1.6870    -1.1760     6.4720 c6         1 587      -0.057700
     11 C12          1.7670    -1.0150     8.0240 c6         1 587      -0.096400
     12 C13          0.5070    -1.5660     8.7710 c6         1 587       0.145300
     13 C14         -0.8120    -1.1460     8.0360 c6         1 587       0.184300
     14 C15         -1.8950    -0.5700     9.0180 c3         1 587       0.183300
     15 C16         -3.3920    -0.4920     8.5290 c3         1 587      -0.088400
     16 C17         -3.8390     0.3800     7.2950 c3         1 587      -0.024700
     17 C18         -4.0750    -0.4220     5.9640 c3         1 587       0.201500
     18 C19         -4.2630     0.4350     4.7070 c2         1 587      -0.153400
     19 C20         -3.2390     0.8350     3.9180 c2         1 587      -0.210200
     20 C21         -3.3080     1.6970     2.6550 c3         1 587      -0.120500
     21 C22         -2.0980     1.4810     1.7010 c          1 587       0.577100
     22 C23         -2.4180     1.0180     0.2700 c3         1 587      -0.219400
     23 C24         -1.2420     1.0910    -0.7410 c3         1 587       0.182300
     24 C25         -0.2910    -0.1570    -0.7380 c3         1 587      -0.059700
     25 C26          1.1360     0.1170    -1.3390 c3         1 587       0.222500
     26 C27          1.1620     0.6980    -2.7620 c2         1 587      -0.115400
     27 C28          1.0260    -0.1070    -3.8380 c2         1 587      -0.212200
     28 C29          1.0530     0.3220    -5.3020 c6         1 587      -0.025500
     29 C30          1.5230    -0.8410    -6.2150 c6         1 587      -0.102400
     30 C31          1.5340    -0.4400    -7.7210 c6         1 587       0.156300
     31 C32          0.1280     0.1000    -8.1650 c6         1 587       0.182300
     32 C33         -0.3310     1.2490    -7.2310 c6         1 587      -0.088400
     33 C34         -0.3440     0.8160    -5.7480 c6         1 587      -0.070400
     34 C35          2.0140    -2.6340     6.0180 c3         1 587      -0.076100
     35 C36         -3.1280     1.7500     7.1440 c3         1 587      -0.083100
     36 C37         -5.7280     0.7830     4.4700 c3         1 587      -0.055900
     37 C38         -3.4490     3.1950     3.0350 c3         1 587      -0.063400
     38 C39         -3.6630     4.1340     1.8280 c3         1 587      -0.091100
     39 C41         -0.9390    -1.4330    -1.3460 c3         1 587      -0.091100
     40 C42          1.3760     2.2130    -2.8400 c3         1 587      -0.060900
     41 C58          0.0830    -0.1850   -10.6420 ca         1 587       0.104100
     42 C59          0.3450     0.4280   -11.8910 ca         1 587      -0.114000
     43 C60         -0.2610    -1.5620   -10.5980 ca         1 587      -0.119000
     44 C61         -0.3110    -2.2650   -11.8080 ca         1 587      -0.073800
     45 C62          0.2840    -0.3120   -13.0920 ca         1 587      -0.108000
     46 C63         -0.0500    -1.6730   -13.0120 ca         1 587      -0.072200
     47 C64         -0.6200    -3.6390   -12.0660 cc         1 587      -0.245200
     48 N65         -0.1740    -2.5990   -14.0380 na         1 587      -0.088700
     49 C66         -0.5310    -3.8290   -13.4410 cd         1 587      -0.159100
     50 C67          0.0400    -2.2970   -15.4620 c3         1 587       0.066900
     51 N7           2.4570     1.1690     3.2440 n          1 587      -0.350800
     52 O1           1.8230     1.0070    -0.4340 os         1 587      -0.438100
     53 O2           2.7310    -0.7060     0.7880 o          1 587      -0.483000
     54 O3           0.9750    -0.5740     2.8750 o          1 587      -0.572100
     55 O4           0.0290     1.7270     5.1200 o          1 587      -0.457100
     56 O5          -0.5280    -0.1640     7.0070 os         1 587      -0.453000
     57 O6          -0.4410    -1.5890     5.2550 oh         1 587      -0.668000
     58 O7           0.5410    -3.0070     8.9240 os         1 587      -0.452000
     59 O8          -1.4410     0.7070     9.5390 os         1 587      -0.445000
     60 O9          -0.9510     1.7040     2.0630 o          1 587      -0.523100
     61 O10         -1.8150     1.2760    -2.0400 oh         1 587      -0.655000
     62 O11          1.9430    -1.5650    -8.5370 os         1 587      -0.452000
     63 O12          0.1450     0.6220    -9.5190 os         1 587      -0.362100
     64 O13         -3.0620    -1.3940     5.7230 oh         1 587      -0.646000
     65 H2           1.8360     2.2420     1.5890 h1         1 587       0.077700
     66 H31A         3.8400     2.8300     0.4510 hc         1 587       0.069700
     67 H32A         4.8040     1.7120     1.4030 hc         1 587       0.069700
     68 H41          3.4150     4.2470     2.4510 hc         1 587       0.045700
     69 H42          5.1520     3.9990     2.2490 hc         1 587       0.045700
     70 H51          4.5190     3.6210     4.6290 hc         1 587       0.058700
     71 H52          5.0980     2.1160     3.9180 hc         1 587       0.058700
     72 H61          2.1830     2.9570     4.3480 h1         1 587       0.062700
     73 H62A         3.0590     1.6890     5.2200 h1         1 587       0.062700
     74 H11          2.5100    -0.5780     6.0580 hc         1 587       0.062700
     75 H121         2.6940    -1.4540     8.4120 hc         1 587       0.059700
     76 H122         1.8490     0.0570     8.2530 hc         1 587       0.059700
     77 H13          0.5020    -1.1290     9.7810 h1         1 587       0.046700
     78 H14         -1.2470    -2.0430     7.5740 h1         1 587       0.065700
     79 H15         -1.9110    -1.2870     9.8500 h1         1 587       0.030700
     80 H161        -4.0030    -0.1830     9.3840 hc         1 587       0.049200
     81 H162        -3.7210    -1.5220     8.3460 hc         1 587       0.049200
     82 H17         -4.8610     0.6800     7.5630 hc         1 587       0.037700
     83 H18         -5.0090    -0.9770     6.1250 h1         1 587       0.023700
     84 H20         -2.2230     0.5440     4.1850 ha         1 587       0.197000
     85 H21         -4.2050     1.4150     2.0920 hc         1 587       0.066700
     86 H231        -3.2750     1.6160    -0.0630 hc         1 587       0.066700
     87 H232        -2.8800     0.0270     0.3230 hc         1 587       0.066700
     88 H24         -0.6450     1.9770    -0.4840 h1         1 587       0.051700
     89 H25         -0.1250    -0.4050     0.3160 hc         1 587       0.067700
     90 H26          1.6700    -0.8420    -1.3910 h1         1 587       0.079700
     91 H28          0.8870    -1.1780    -3.6810 ha         1 587       0.173000
     92 H29          1.7730     1.1430    -5.4230 hc         1 587       0.056700
     93 H301         2.5280    -1.1480    -5.8960 hc         1 587       0.050200
     94 H302         0.8690    -1.7130    -6.0770 hc         1 587       0.050200
     95 H31          2.2650     0.3700    -7.8630 h1         1 587       0.045700
     96 H32         -0.6210    -0.6990    -8.0840 h1         1 587       0.056700
     97 H331        -1.3360     1.5820    -7.5240 hc         1 587       0.054700
     98 H332         0.3330     2.1160    -7.3560 hc         1 587       0.054700
     99 H341        -1.0880     0.0200    -5.5980 hc         1 587       0.046700
    100 H342        -0.6640     1.6590    -5.1210 hc         1 587       0.046700
    101 H351         2.9870    -2.9580     6.4070 hc         1 587       0.038367
    102 H352         1.2640    -3.3530     6.3690 hc         1 587       0.038367
    103 H353         2.0620    -2.7070     4.9250 hc         1 587       0.038367
    104 H361        -3.6950     2.4080     6.4740 hc         1 587       0.046033
    105 H362        -3.0580     2.2620     8.1090 hc         1 587       0.046033
    106 H363        -2.1240     1.6510     6.7300 hc         1 587       0.046033
    107 H371        -5.8820     1.4260     3.5970 hc         1 587       0.041367
    108 H372        -6.3250    -0.1230     4.3110 hc         1 587       0.041367
    109 H373        -6.1490     1.3110     5.3330 hc         1 587       0.041367
    110 H381        -2.5570     3.5170     3.5860 hc         1 587       0.053200
    111 H382        -4.2960     3.3170     3.7220 hc         1 587       0.053200
    112 H391        -3.8100     5.1650     2.1710 hc         1 587       0.034033
    113 H392        -2.7960     4.1220     1.1580 hc         1 587       0.034033
    114 H393        -4.5500     3.8350     1.2560 hc         1 587       0.034033
    115 H411        -1.8610    -1.7000    -0.8180 hc         1 587       0.048033
    116 H412        -1.1850    -1.2920    -2.4050 hc         1 587       0.048033
    117 H413        -0.2560    -2.2870    -1.2680 hc         1 587       0.048033
    118 H421         1.2450     2.6160    -3.8480 hc         1 587       0.050700
    119 H422         0.6700     2.7540    -2.2010 hc         1 587       0.050700
    120 H423         2.3880     2.4850    -2.5170 hc         1 587       0.050700
    121 H431         1.3870    -4.6470     9.9020 h1         1 587       0.027367
    122 H432         2.5570    -3.4470     9.3310 h1         1 587       0.027367
    123 H433         1.5500    -3.1000    10.7610 h1         1 587       0.027367
    124 H441        -1.5560     2.0720    11.1150 h1         1 587       0.027700
    125 H442        -3.1210     1.4530    10.5650 h1         1 587       0.027700
    126 H443        -2.0380     0.4140    11.5300 h1         1 587       0.027700
    127 H451         3.5080    -2.7940    -9.1730 h1         1 587       0.028033
    128 H452         4.0070    -1.1960    -8.5790 h1         1 587       0.028033
    129 H453         3.4920    -2.4610    -7.4320 h1         1 587       0.028033
    130 H59          0.5970     1.4840   -11.9250 ha         1 587       0.120000
    131 H60         -0.4780    -2.0810    -9.6700 ha         1 587       0.135000
    132 H62          0.4890     0.1650   -14.0480 ha         1 587       0.112000
    133 H64         -0.8760    -4.4040   -11.3350 ha         1 587       0.205000
    134 H66         -0.6920    -4.7290   -14.0280 h4         1 587       0.207000
    135 H671         1.0650    -1.9360   -15.6110 h1         1 587       0.046700
    136 H672        -0.1150    -3.2030   -16.0610 h1         1 587       0.046700
    137 H673        -0.6690    -1.5250   -15.7840 h1         1 587       0.046700
    138 HO6         -1.3770    -1.4040     5.5280 ho         1 587       0.473000
    139 HO10        -2.2490     2.1550    -2.0440 ho         1 587       0.439000
    140 HO13        -3.4490    -2.0160     5.0680 ho         1 587       0.440000
    141 C43          1.5600    -3.5710     9.7700 c3         1 587       0.147900
    142 C44         -2.0740     1.1790    10.7440 c3         1 587       0.144900
    143 C45          3.3030    -2.0230    -8.4200 c3         1 587       0.150900
@<TRIPOS>BOND
     1     1     2 1   
     2     1    52 1   
     3     1    53 2   
     4     2     3 1   
     5     2    51 1   
     6     2    65 1   
     7     3     4 1   
     8     3    66 1   
     9     3    67 1   
    10     4     5 1   
    11     4    68 1   
    12     4    69 1   
    13     5     6 1   
    14     5    70 1   
    15     5    71 1   
    16     6    51 1   
    17     6    72 1   
    18     6    73 1   
    19     7     8 1   
    20     7    51 1   
    21     7    54 2   
    22     8     9 1   
    23     8    55 2   
    24     9    10 1   
    25     9    56 1   
    26     9    57 1   
    27    10    11 1   
    28    10    34 1   
    29    10    74 1   
    30    11    12 1   
    31    11    75 1   
    32    11    76 1   
    33    12    13 1   
    34    12    58 1   
    35    12    77 1   
    36    13    14 1   
    37    13    56 1   
    38    13    78 1   
    39    14    15 1   
    40    14    59 1   
    41    14    79 1   
    42    15    16 1   
    43    15    80 1   
    44    15    81 1   
    45    16    17 1   
    46    16    35 1   
    47    16    82 1   
    48    17    18 1   
    49    17    64 1   
    50    17    83 1   
    51    18    19 2   
    52    18    36 1   
    53    19    20 1   
    54    19    84 1   
    55    20    21 1   
    56    20    37 1   
    57    20    85 1   
    58    21    22 1   
    59    21    60 2   
    60    22    23 1   
    61    22    86 1   
    62    22    87 1   
    63    23    24 1   
    64    23    61 1   
    65    23    88 1   
    66    24    25 1   
    67    24    39 1   
    68    24    89 1   
    69    25    26 1   
    70    25    52 1   
    71    25    90 1   
    72    26    27 2   
    73    26    40 1   
    74    27    28 1   
    75    27    91 1   
    76    28    29 1   
    77    28    33 1   
    78    28    92 1   
    79    29    30 1   
    80    29    93 1   
    81    29    94 1   
    82    30    31 1   
    83    30    62 1   
    84    30    95 1   
    85    31    32 1   
    86    31    63 1   
    87    31    96 1   
    88    32    33 1   
    89    32    97 1   
    90    32    98 1   
    91    33    99 1   
    92    33   100 1   
    93    34   101 1   
    94    34   102 1   
    95    34   103 1   
    96    35   104 1   
    97    35   105 1   
    98    35   106 1   
    99    36   107 1   
   100    36   108 1   
   101    36   109 1   
   102    37    38 1   
   103    37   110 1   
   104    37   111 1   
   105    38   112 1   
   106    38   113 1   
   107    38   114 1   
   108    39   115 1   
   109    39   116 1   
   110    39   117 1   
   111    40   118 1   
   112    40   119 1   
   113    40   120 1   
   114    41    42 ar  
   115    41    43 ar  
   116    41    63 1   
   117    42    45 ar  
   118    42   130 1   
   119    43    44 ar  
   120    43   131 1   
   121    44    46 ar  
   122    44    47 1   
   123    45    46 ar  
   124    45   132 1   
   125    46    48 1   
   126    47    49 2   
   127    47   133 1   
   128    48    49 1   
   129    48    50 1   
   130    49   134 1   
   131    50   135 1   
   132    50   136 1   
   133    50   137 1   
   134    57   138 1   
   135    58   141 1   
   136    59   142 1   
   137    61   139 1   
   138    62   143 1   
   139    64   140 1   
   140   121   141 1   
   141   122   141 1   
   142   123   141 1   
   143   124   142 1   
   144   125   142 1   
   145   126   142 1   
   146   127   143 1   
   147   128   143 1   
   148   129   143 1   
@<TRIPOS>SUBSTRUCTURE
     1 587         1 TEMP              0 ****  ****    0 ROOT
