@<TRIPOS>MOLECULE
588
   71    72     1     0     0
SMALL
No Charge or Current Charge


@<TRIPOS>ATOM
      1 O6          -3.0310     1.3990    -2.9520 o          1 588      -0.694500
      2 C24         -2.4350     0.4760    -2.3990 c          1 588       0.672000
      3 O7          -1.2500     0.2290    -2.6160 o          1 588      -0.694500
      4 C8          -3.2830    -0.5230    -1.4370 c          1 588       0.489100
      5 O5          -4.4440    -0.8450    -1.7240 o          1 588      -0.587100
      6 N4          -2.6610    -1.0150    -0.2540 n          1 588      -0.069000
      7 C2          -1.5290    -0.3470     0.3470 ca         1 588       0.091000
      8 C3          -0.4120    -1.1220     0.7230 ca         1 588      -0.090000
      9 C4           0.7250    -0.5230     1.2870 ca         1 588      -0.097000
     10 C5           0.7630     0.8660     1.4910 ca         1 588      -0.153300
     11 C6          -0.3610     1.6410     1.1550 ca         1 588      -0.070000
     12 C1          -1.5130     1.0530     0.5930 ca         1 588      -0.096800
     13 C17         -2.7190     1.9080     0.3760 ce         1 588      -0.020200
     14 C18         -2.7510     3.2230     0.0170 cf         1 588      -0.336200
     15 C19         -3.9980     3.9960    -0.1630 c          1 588       0.621300
     16 O1          -5.1120     3.5340     0.0080 o          1 588      -0.624100
     17 N3          -3.8290     5.2780    -0.5310 nt         1 588      -0.623000
     18 C7           1.9950     1.5210     2.1160 c3         1 588      -0.012100
     19 C9           3.0420     2.0430     1.0970 c3         1 588       0.170500
     20 N1           2.4010     3.0520     0.1940 n7         1 588      -0.900300
     21 S1           3.3190     4.0680    -0.7520 s6         1 588       1.234100
     22 O4           4.4340     4.5200     0.0820 o          1 588      -0.546000
     23 O2           2.3820     5.0380    -1.3180 o          1 588      -0.546000
     24 C20          3.9460     3.0110    -2.0430 c3         1 588      -0.393100
     25 C11          3.7460     0.8460     0.3670 c          1 588       0.585100
     26 O8           3.2390     0.2540    -0.5780 o          1 588      -0.558100
     27 N2           5.0150     0.5400     0.8190 ns         1 588      -0.508900
     28 C12          5.8390    -0.5570     0.3030 c3         1 588       0.103000
     29 C13          5.3790    -1.9270     0.8420 c3         1 588      -0.091400
     30 C15          6.2430    -3.0970     0.3260 c3         1 588      -0.076400
     31 C14          5.7840    -4.4700     0.8640 c3         1 588      -0.073400
     32 C16          6.6450    -5.6390     0.3500 c3         1 588      -0.088100
     33 C26         -3.1500    -2.1800     0.4640 ca         1 588      -0.013000
     34 C27         -3.2140    -2.1160     1.8770 ca         1 588      -0.150000
     35 C28         -3.7170    -3.1850     2.6320 ca         1 588      -0.149000
     36 C29         -4.1600    -4.3450     1.9890 ca         1 588      -0.163000
     37 C30         -4.0840    -4.4430     0.5930 ca         1 588      -0.099000
     38 C25         -3.5740    -3.3780    -0.1880 ca         1 588      -0.103600
     39 C31         -3.4100    -3.6100    -1.6780 c          1 588       0.725600
     40 O9          -2.3420    -3.3150    -2.1960 o          1 588      -0.716000
     41 O10         -4.3010    -4.1990    -2.2760 o          1 588      -0.716000
     42 H3          -0.4160    -2.1960     0.5540 ha         1 588       0.170000
     43 H4           1.5780    -1.1410     1.5560 ha         1 588       0.083000
     44 H6          -0.3470     2.7080     1.3630 ha         1 588       0.089000
     45 H17         -3.6730     1.4000     0.5430 ha         1 588       0.216000
     46 H18         -1.8160     3.7500    -0.1600 ha         1 588       0.174000
     47 HN31        -2.9000     5.6460    -0.6680 hn         1 588       0.297500
     48 HN32        -4.6400     5.8620    -0.6700 hn         1 588       0.297500
     49 H71          2.4900     0.8170     2.7970 hc         1 588       0.043700
     50 H72          1.6810     2.3630     2.7460 hc         1 588       0.043700
     51 H9           3.8150     2.5450     1.6930 h1         1 588       0.033700
     52 HN1          1.8760     2.5480    -0.5190 hn         1 588       0.547000
     53 H201         3.1050     2.4780    -2.4970 h1         1 588       0.092033
     54 H202         4.4340     3.6600    -2.7780 h1         1 588       0.092033
     55 H203         4.6760     2.3240    -1.6060 h1         1 588       0.092033
     56 HN2          5.3780     1.0930     1.5880 hn         1 588       0.304500
     57 H121         6.8820    -0.3790     0.5980 h1         1 588       0.062700
     58 H122         5.7940    -0.5550    -0.7940 h1         1 588       0.062700
     59 H131         4.3340    -2.0980     0.5550 hc         1 588       0.035200
     60 H132         5.4110    -1.9090     1.9390 hc         1 588       0.035200
     61 H151         7.2890    -2.9290     0.6150 hc         1 588       0.048700
     62 H152         6.2130    -3.1120    -0.7710 hc         1 588       0.048700
     63 H141         4.7400    -4.6430     0.5750 hc         1 588       0.031700
     64 H142         5.8150    -4.4600     1.9610 hc         1 588       0.031700
     65 H161         6.2820    -6.5900     0.7570 hc         1 588       0.029367
     66 H162         6.6060    -5.6980    -0.7450 hc         1 588       0.029367
     67 H163         7.6920    -5.5140     0.6530 hc         1 588       0.029367
     68 H27         -2.8990    -1.2160     2.4010 ha         1 588       0.095000
     69 H28         -3.7690    -3.1090     3.7150 ha         1 588       0.072000
     70 H29         -4.5500    -5.1760     2.5730 ha         1 588       0.069000
     71 H30         -4.4010    -5.3640     0.1100 ha         1 588       0.109000
@<TRIPOS>BOND
     1     1     2 1   
     2     2     3 1   
     3     2     4 1   
     4     4     5 2   
     5     4     6 1   
     6     6     7 1   
     7     6    33 1   
     8     7     8 ar  
     9     7    12 ar  
    10     8     9 ar  
    11     8    42 1   
    12     9    10 ar  
    13     9    43 1   
    14    10    11 ar  
    15    10    18 1   
    16    11    12 ar  
    17    11    44 1   
    18    12    13 1   
    19    13    14 2   
    20    13    45 1   
    21    14    15 1   
    22    14    46 1   
    23    15    16 2   
    24    15    17 1   
    25    17    47 1   
    26    17    48 1   
    27    18    19 1   
    28    18    49 1   
    29    18    50 1   
    30    19    20 1   
    31    19    25 1   
    32    19    51 1   
    33    20    21 1   
    34    20    52 1   
    35    21    22 2   
    36    21    23 2   
    37    21    24 1   
    38    24    53 1   
    39    24    54 1   
    40    24    55 1   
    41    25    26 2   
    42    25    27 1   
    43    27    28 1   
    44    27    56 1   
    45    28    29 1   
    46    28    57 1   
    47    28    58 1   
    48    29    30 1   
    49    29    59 1   
    50    29    60 1   
    51    30    31 1   
    52    30    61 1   
    53    30    62 1   
    54    31    32 1   
    55    31    63 1   
    56    31    64 1   
    57    32    65 1   
    58    32    66 1   
    59    32    67 1   
    60    33    34 ar  
    61    33    38 ar  
    62    34    35 ar  
    63    34    68 1   
    64    35    36 ar  
    65    35    69 1   
    66    36    37 ar  
    67    36    70 1   
    68    37    38 ar  
    69    37    71 1   
    70    38    39 1   
    71    39    40 1   
    72    39    41 1   
@<TRIPOS>SUBSTRUCTURE
     1 588         1 TEMP              0 ****  ****    0 ROOT
