@<TRIPOS>MOLECULE
588
   71    72     1     0     0
SMALL
bcc


@<TRIPOS>ATOM
      1 O6          -2.5540     0.7320    -3.1380 o          1 588      -0.799800
      2 C24         -2.0210    -0.1830    -2.4930 c          1 588       0.882600
      3 O7          -0.8580    -0.6050    -2.5410 o          1 588      -0.799800
      4 C8          -2.9740    -0.9490    -1.5540 c          1 588       0.556100
      5 O5          -4.0140    -1.4260    -1.9740 o          1 588      -0.587100
      6 N4          -2.6030    -1.0830    -0.2470 n          1 588      -0.321200
      7 C2          -1.4290    -0.4890     0.2820 ca         1 588       0.183600
      8 C3          -0.3900    -1.3150     0.6890 ca         1 588      -0.108000
      9 C4           0.7610    -0.7760     1.2320 ca         1 588      -0.115000
     10 C5           0.8890     0.6040     1.4000 ca         1 588      -0.153300
     11 C6          -0.1680     1.4120     1.0160 ca         1 588      -0.088000
     12 C1          -1.3320     0.8970     0.4430 ca         1 588      -0.096800
     13 C17         -2.4110     1.7910     0.0330 ce         1 588       0.029800
     14 C18         -2.2570     3.0860    -0.2550 cf         1 588      -0.286200
     15 C19         -3.4140     3.9260    -0.6390 c          1 588       0.688300
     16 O1          -4.5710     3.5200    -0.6210 o          1 588      -0.624100
     17 N3          -3.0890     5.1780    -1.0070 nt         1 588      -0.690000
     18 C7           2.1470     1.2210     1.9330 c3         1 588      -0.012100
     19 C9           3.0370     1.7780     0.8010 c3         1 588       0.170500
     20 N1           2.3310     2.7690     0.0190 n7         1 588      -0.845100
     21 S1           2.3950     4.3660     0.3270 s6         1 588       1.264900
     22 O4           2.5170     4.5220     1.7710 o          1 588      -0.616800
     23 O2           1.2710     4.9790    -0.3660 o          1 588      -0.616800
     24 C20          3.8930     4.9720    -0.4160 c3         1 588      -0.282300
     25 C11          3.4670     0.6630    -0.1560 c          1 588       0.652100
     26 O8           3.1030     0.6420    -1.3220 o          1 588      -0.558100
     27 N2           4.2370    -0.2810     0.3900 ns         1 588      -0.575900
     28 C12          4.6850    -1.4470    -0.3460 c3         1 588       0.103000
     29 C13          5.5410    -2.3440     0.5320 c3         1 588      -0.091400
     30 C15          5.9950    -3.5930    -0.2110 c3         1 588      -0.076400
     31 C14          6.8650    -4.5090     0.6410 c3         1 588      -0.073400
     32 C16          7.3020    -5.7630    -0.1030 c3         1 588      -0.088100
     33 C26         -3.3760    -1.8840     0.6400 ca         1 588       0.079600
     34 C27         -3.8890    -1.2710     1.7800 ca         1 588      -0.168000
     35 C28         -4.6550    -1.9860     2.6870 ca         1 588      -0.167000
     36 C29         -4.9400    -3.3210     2.4340 ca         1 588      -0.181000
     37 C30         -4.4490    -3.9210     1.2850 ca         1 588      -0.117000
     38 C25         -3.6390    -3.2320     0.3830 ca         1 588      -0.103600
     39 C31         -3.0580    -3.9980    -0.7970 c          1 588       0.936200
     40 O9          -1.8620    -3.7890    -1.0640 o          1 588      -0.821300
     41 O10         -3.8250    -4.8060    -1.3550 o          1 588      -0.821300
     42 H3          -0.4910    -2.3810     0.5350 ha         1 588       0.188000
     43 H4           1.5720    -1.4330     1.5270 ha         1 588       0.101000
     44 H6          -0.0970     2.4770     1.1940 ha         1 588       0.107000
     45 H17         -3.4080     1.3690    -0.0430 ha         1 588       0.166000
     46 H18         -1.2750     3.5490    -0.2530 ha         1 588       0.124000
     47 HN31        -2.1340     5.4900    -1.0520 hn         1 588       0.297500
     48 HN32        -3.8010     5.8230    -1.3060 hn         1 588       0.297500
     49 H71          2.7140     0.4990     2.5230 hc         1 588       0.043700
     50 H72          1.9160     2.0490     2.6040 hc         1 588       0.043700
     51 H9           3.9390     2.2030     1.2540 h1         1 588       0.033700
     52 HN1          2.1130     2.5040    -0.9360 hn         1 588       0.491800
     53 H201         3.8540     4.7960    -1.4880 h1         1 588       0.092033
     54 H202         3.9690     6.0390    -0.2150 h1         1 588       0.092033
     55 H203         4.7450     4.4540     0.0180 h1         1 588       0.092033
     56 HN2          4.5480    -0.1720     1.3420 hn         1 588       0.304500
     57 H121         5.2550    -1.1350    -1.2260 h1         1 588       0.062700
     58 H122         3.8170    -2.0030    -0.7110 h1         1 588       0.062700
     59 H131         4.9740    -2.6330     1.4230 hc         1 588       0.035200
     60 H132         6.4150    -1.7860     0.8830 hc         1 588       0.035200
     61 H151         6.5460    -3.3030    -1.1110 hc         1 588       0.048700
     62 H152         5.1160    -4.1470    -0.5580 hc         1 588       0.048700
     63 H141         6.3170    -4.7900     1.5450 hc         1 588       0.031700
     64 H142         7.7470    -3.9580     0.9800 hc         1 588       0.031700
     65 H161         7.9170    -6.4070     0.5260 hc         1 588       0.029367
     66 H162         6.4400    -6.3460    -0.4330 hc         1 588       0.029367
     67 H163         7.8860    -5.5120    -0.9910 hc         1 588       0.029367
     68 H27         -3.6870    -0.2220     1.9610 ha         1 588       0.113000
     69 H28         -5.0380    -1.4990     3.5740 ha         1 588       0.090000
     70 H29         -5.5470    -3.8900     3.1260 ha         1 588       0.087000
     71 H30         -4.6830    -4.9590     1.0860 ha         1 588       0.127000
@<TRIPOS>BOND
     1     1     2 1   
     2     2     3 1   
     3     2     4 1   
     4     4     5 2   
     5     4     6 1   
     6     6     7 1   
     7     6    33 1   
     8     7     8 ar  
     9     7    12 ar  
    10     8     9 ar  
    11     8    42 1   
    12     9    10 ar  
    13     9    43 1   
    14    10    11 ar  
    15    10    18 1   
    16    11    12 ar  
    17    11    44 1   
    18    12    13 1   
    19    13    14 2   
    20    13    45 1   
    21    14    15 1   
    22    14    46 1   
    23    15    16 2   
    24    15    17 1   
    25    17    47 1   
    26    17    48 1   
    27    18    19 1   
    28    18    49 1   
    29    18    50 1   
    30    19    20 1   
    31    19    25 1   
    32    19    51 1   
    33    20    21 1   
    34    20    52 1   
    35    21    22 2   
    36    21    23 2   
    37    21    24 1   
    38    24    53 1   
    39    24    54 1   
    40    24    55 1   
    41    25    26 2   
    42    25    27 1   
    43    27    28 1   
    44    27    56 1   
    45    28    29 1   
    46    28    57 1   
    47    28    58 1   
    48    29    30 1   
    49    29    59 1   
    50    29    60 1   
    51    30    31 1   
    52    30    61 1   
    53    30    62 1   
    54    31    32 1   
    55    31    63 1   
    56    31    64 1   
    57    32    65 1   
    58    32    66 1   
    59    32    67 1   
    60    33    34 ar  
    61    33    38 ar  
    62    34    35 ar  
    63    34    68 1   
    64    35    36 ar  
    65    35    69 1   
    66    36    37 ar  
    67    36    70 1   
    68    37    38 ar  
    69    37    71 1   
    70    38    39 1   
    71    39    40 1   
    72    39    41 1   
@<TRIPOS>SUBSTRUCTURE
     1 588         1 TEMP              0 ****  ****    0 ROOT
