@<TRIPOS>MOLECULE
589
   66    71     1     0     0
SMALL
No Charge or Current Charge


@<TRIPOS>ATOM
      1 C1           5.9810    -1.3840     0.9180 ca         1 589      -0.098000
      2 C2           4.8290    -0.6540     0.5660 ca         1 589      -0.034000
      3 C3           3.5550    -1.1240     0.9470 ca         1 589      -0.032000
      4 C4           3.4400    -2.3220     1.6780 ca         1 589      -0.095000
      5 C5           4.5920    -3.0470     2.0280 ca         1 589      -0.105000
      6 C6           5.8610    -2.5780     1.6490 ca         1 589      -0.102000
      7 C7           2.4040    -0.3960     0.5940 ca         1 589      -0.090000
      8 C8           2.5080     0.8170    -0.1220 ca         1 589       0.059600
      9 C9           3.7850     1.2580    -0.5240 ca         1 589      -0.093000
     10 C10          4.9390     0.5370    -0.1720 ca         1 589      -0.091000
     11 N11          1.3370     1.5180    -0.5860 n          1 589      -0.245500
     12 C12          0.0910     0.9570    -0.8960 cc         1 589       0.414500
     13 N13         -0.8880     1.8610    -1.0110 nd         1 589      -0.478300
     14 N14         -0.1900     3.0380    -0.7890 n          1 589      -0.158800
     15 C15          1.1610     2.8850    -0.5150 c          1 589       0.567000
     16 O16          1.9770     3.7510    -0.2250 o          1 589      -0.550000
     17 C17         -0.9040     4.3400    -0.7630 c6         1 589       0.154700
     18 C18         -1.6170     4.5580     0.5970 c6         1 589      -0.128400
     19 C19         -2.3790     5.9030     0.5980 c6         1 589       0.155100
     20 O20         -3.3000     5.9450    -0.5130 os         1 589      -0.447000
     21 C21         -2.6660     5.8480    -1.8070 c6         1 589       0.155100
     22 C22         -1.9270     4.4960    -1.9230 c6         1 589      -0.128400
     23 C23         -0.1130    -0.4680    -1.2120 ca         1 589      -0.035900
     24 C24          0.8470    -1.2370    -1.9050 ca         1 589      -0.211000
     25 C25          0.5690    -2.5750    -2.2310 ca         1 589       0.389900
     26 N26         -0.6010    -3.1790    -1.9320 nb         1 589      -0.751000
     27 C27         -1.5130    -2.4430    -1.3040 ca         1 589       0.625900
     28 C28         -1.3430    -1.1000    -0.9440 ca         1 589      -0.207000
     29 N29         -2.6490    -3.1680    -1.0850 nu         1 589      -0.938100
     30 C30         -3.6350    -2.9020    -0.0310 c6         1 589       0.241500
     31 C31         -4.8590    -3.8300    -0.2350 c6         1 589      -0.093400
     32 C32         -5.9090    -3.6300     0.8870 c6         1 589      -0.072400
     33 C33         -5.2810    -3.8470     2.2860 c6         1 589      -0.077400
     34 C34         -4.0490    -2.9320     2.4950 c6         1 589      -0.072400
     35 C35         -3.0040    -3.1320     1.3690 c6         1 589      -0.093400
     36 H1           6.9660    -1.0280     0.6260 ha         1 589       0.116000
     37 H4           2.4610    -2.6930     1.9750 ha         1 589       0.116000
     38 H5           4.5010    -3.9730     2.5930 ha         1 589       0.115000
     39 H6           6.7520    -3.1410     1.9200 ha         1 589       0.115000
     40 H7           1.4300    -0.7650     0.9040 ha         1 589       0.127000
     41 H9           3.8890     2.1600    -1.1220 ha         1 589       0.131000
     42 H10          5.9160     0.9000    -0.4850 ha         1 589       0.120000
     43 H17         -0.1530     5.1370    -0.8780 h1         1 589       0.077700
     44 H18         -2.3210     3.7370     0.7910 hc         1 589       0.065200
     45 H18A        -0.8840     4.5460     1.4140 hc         1 589       0.065200
     46 H19         -2.9440     6.0150     1.5350 h1         1 589       0.046950
     47 H19A        -1.6750     6.7440     0.5200 h1         1 589       0.046950
     48 H21         -3.4350     5.9250    -2.5890 h1         1 589       0.046950
     49 H21A        -1.9630     6.6840    -1.9330 h1         1 589       0.046950
     50 H22         -1.4120     4.4330    -2.8900 hc         1 589       0.065200
     51 H22A        -2.6650     3.6830    -1.9000 hc         1 589       0.065200
     52 H24          1.8000    -0.8100    -2.2030 ha         1 589       0.134000
     53 H25          1.3050    -3.1790    -2.7600 h4         1 589       0.018100
     54 H28         -2.1450    -0.5580    -0.4540 ha         1 589       0.138000
     55 HN29        -2.5290    -4.1250    -1.4010 hn         1 589       0.498000
     56 H30         -3.9870    -1.8600    -0.0950 h1         1 589       0.061700
     57 H31         -5.3230    -3.6290    -1.2110 hc         1 589       0.047450
     58 H31A        -4.5380    -4.8810    -0.2510 hc         1 589       0.047450
     59 H32         -6.3310    -2.6170     0.8240 hc         1 589       0.043200
     60 H32A        -6.7470    -4.3260     0.7430 hc         1 589       0.043200
     61 H33         -6.0290    -3.6510     3.0660 hc         1 589       0.042200
     62 H33A        -4.9830    -4.8990     2.3980 hc         1 589       0.042200
     63 H34         -4.3690    -1.8810     2.5210 hc         1 589       0.043200
     64 H34A        -3.5900    -3.1410     3.4710 hc         1 589       0.043200
     65 H35         -2.5880    -4.1470     1.4310 hc         1 589       0.047450
     66 H35A        -2.1640    -2.4410     1.5260 hc         1 589       0.047450
@<TRIPOS>BOND
     1     1     2 ar  
     2     1     6 ar  
     3     1    36 1   
     4     2     3 ar  
     5     2    10 ar  
     6     3     4 ar  
     7     3     7 ar  
     8     4     5 ar  
     9     4    37 1   
    10     5     6 ar  
    11     5    38 1   
    12     6    39 1   
    13     7     8 ar  
    14     7    40 1   
    15     8     9 ar  
    16     8    11 1   
    17     9    10 ar  
    18     9    41 1   
    19    10    42 1   
    20    11    12 1   
    21    11    15 1   
    22    12    13 2   
    23    12    23 1   
    24    13    14 1   
    25    14    15 1   
    26    14    17 1   
    27    15    16 2   
    28    17    18 1   
    29    17    22 1   
    30    17    43 1   
    31    18    19 1   
    32    18    44 1   
    33    18    45 1   
    34    19    20 1   
    35    19    46 1   
    36    19    47 1   
    37    20    21 1   
    38    21    22 1   
    39    21    48 1   
    40    21    49 1   
    41    22    50 1   
    42    22    51 1   
    43    23    24 ar  
    44    23    28 ar  
    45    24    25 ar  
    46    24    52 1   
    47    25    26 ar  
    48    25    53 1   
    49    26    27 ar  
    50    27    28 ar  
    51    27    29 1   
    52    28    54 1   
    53    29    30 1   
    54    29    55 1   
    55    30    31 1   
    56    30    35 1   
    57    30    56 1   
    58    31    32 1   
    59    31    57 1   
    60    31    58 1   
    61    32    33 1   
    62    32    59 1   
    63    32    60 1   
    64    33    34 1   
    65    33    61 1   
    66    33    62 1   
    67    34    35 1   
    68    34    63 1   
    69    34    64 1   
    70    35    65 1   
    71    35    66 1   
@<TRIPOS>SUBSTRUCTURE
     1 589         1 TEMP              0 ****  ****    0 ROOT
