@<TRIPOS>MOLECULE
589
   66    71     1     0     0
SMALL
bcc


@<TRIPOS>ATOM
      1 C1           6.4310    -1.1330     0.2580 ca         1 589      -0.116000
      2 C2           5.1750    -0.5070     0.0770 ca         1 589      -0.034000
      3 C3           4.1000    -0.8590     0.9330 ca         1 589      -0.032000
      4 C4           4.3130    -1.8230     1.9470 ca         1 589      -0.113000
      5 C5           5.5390    -2.4110     2.0990 ca         1 589      -0.123000
      6 C6           6.6080    -2.0640     1.2450 ca         1 589      -0.120000
      7 C7           2.8450    -0.2370     0.7540 ca         1 589      -0.108000
      8 C8           2.6690     0.6740    -0.2480 ca         1 589       0.059600
      9 C9           3.7320     1.0360    -1.1020 ca         1 589      -0.111000
     10 C10          4.9580     0.4570    -0.9360 ca         1 589      -0.109000
     11 N11          1.3990     1.2630    -0.4520 n          1 589      -0.312500
     12 C12          0.2030     0.6510    -0.7390 cc         1 589       0.414500
     13 N13         -0.7600     1.5090    -0.7310 nd         1 589      -0.478300
     14 N14         -0.1970     2.6990    -0.4300 n          1 589      -0.225800
     15 C15          1.1460     2.6090    -0.2400 c          1 589       0.776500
     16 O16          1.9470     3.4760     0.0560 o          1 589      -0.625500
     17 C17         -1.0040     3.8970    -0.3370 c6         1 589       0.154700
     18 C18         -2.0190     3.8080     0.7960 c6         1 589      -0.128400
     19 C19         -2.8900     5.0560     0.8050 c6         1 589       0.131900
     20 O20         -3.5270     5.2640    -0.4360 os         1 589      -0.400600
     21 C21         -2.5980     5.4260    -1.4840 c6         1 589       0.131900
     22 C22         -1.7120     4.2010    -1.6530 c6         1 589      -0.128400
     23 C23          0.0080    -0.7670    -1.0430 ca         1 589      -0.035900
     24 C24          0.9760    -1.5310    -1.7000 ca         1 589      -0.294300
     25 C25          0.6650    -2.8550    -1.9530 ca         1 589       0.455200
     26 N26         -0.4800    -3.4350    -1.6290 nb         1 589      -0.751000
     27 C27         -1.4190    -2.7010    -1.0200 ca         1 589       0.691200
     28 C28         -1.1970    -1.3500    -0.6930 ca         1 589      -0.290300
     29 N29         -2.5870    -3.3300    -0.7580 nu         1 589      -0.882900
     30 C30         -3.7010    -2.7770    -0.0220 c6         1 589       0.241500
     31 C31         -4.9800    -3.5170    -0.4040 c6         1 589      -0.093400
     32 C32         -6.1890    -2.9470     0.3330 c6         1 589      -0.072400
     33 C33         -5.9830    -2.9620     1.8440 c6         1 589      -0.077400
     34 C34         -4.6980    -2.2350     2.2270 c6         1 589      -0.072400
     35 C35         -3.4940    -2.8180     1.4930 c6         1 589      -0.093400
     36 H1           7.2500    -0.8660    -0.3980 ha         1 589       0.134000
     37 H4           3.4930    -2.0890     2.6020 ha         1 589       0.134000
     38 H5           5.6930    -3.1480     2.8760 ha         1 589       0.133000
     39 H6           7.5710    -2.5400     1.3750 ha         1 589       0.133000
     40 H7           2.0230    -0.4950     1.4110 ha         1 589       0.145000
     41 H9           3.5660     1.7560    -1.8920 ha         1 589       0.149000
     42 H10          5.7760     0.7270    -1.5910 ha         1 589       0.138000
     43 H17         -0.3000     4.7060    -0.1230 h1         1 589       0.077700
     44 H18         -2.6460     2.9220     0.6650 hc         1 589       0.065200
     45 H18A        -1.5110     3.7150     1.7590 hc         1 589       0.065200
     46 H19         -3.6740     4.9630     1.5580 h1         1 589       0.046950
     47 H19A        -2.2810     5.9320     1.0740 h1         1 589       0.046950
     48 H21         -3.1690     5.6100    -2.3960 h1         1 589       0.046950
     49 H21A        -1.9690     6.3100    -1.3040 h1         1 589       0.046950
     50 H22         -0.9810     4.3860    -2.4440 hc         1 589       0.065200
     51 H22A        -2.3160     3.3430    -1.9580 hc         1 589       0.065200
     52 H24          1.9260    -1.1280    -2.0140 ha         1 589       0.152000
     53 H25          1.3910    -3.4860    -2.4540 h4         1 589       0.018100
     54 H28         -1.9400    -0.7680    -0.1690 ha         1 589       0.156000
     55 HN29        -2.5930    -4.3220    -0.9410 hn         1 589       0.442800
     56 H30         -3.8250    -1.7320    -0.3310 h1         1 589       0.061700
     57 H31         -5.1290    -3.4600    -1.4850 hc         1 589       0.047450
     58 H31A        -4.8660    -4.5780    -0.1510 hc         1 589       0.047450
     59 H32         -6.3620    -1.9180     0.0010 hc         1 589       0.043200
     60 H32A        -7.0830    -3.5140     0.0630 hc         1 589       0.043200
     61 H33         -6.8400    -2.5090     2.3470 hc         1 589       0.042200
     62 H33A        -5.9280    -3.9990     2.1910 hc         1 589       0.042200
     63 H34         -4.7940    -1.1720     1.9780 hc         1 589       0.043200
     64 H34A        -4.5380    -2.2870     3.3060 hc         1 589       0.043200
     65 H35         -3.3460    -3.8610     1.7960 hc         1 589       0.047450
     66 H35A        -2.5830    -2.2800     1.7680 hc         1 589       0.047450
@<TRIPOS>BOND
     1     1     2 ar  
     2     1     6 ar  
     3     1    36 1   
     4     2     3 ar  
     5     2    10 ar  
     6     3     4 ar  
     7     3     7 ar  
     8     4     5 ar  
     9     4    37 1   
    10     5     6 ar  
    11     5    38 1   
    12     6    39 1   
    13     7     8 ar  
    14     7    40 1   
    15     8     9 ar  
    16     8    11 1   
    17     9    10 ar  
    18     9    41 1   
    19    10    42 1   
    20    11    12 1   
    21    11    15 1   
    22    12    13 2   
    23    12    23 1   
    24    13    14 1   
    25    14    15 1   
    26    14    17 1   
    27    15    16 2   
    28    17    18 1   
    29    17    22 1   
    30    17    43 1   
    31    18    19 1   
    32    18    44 1   
    33    18    45 1   
    34    19    20 1   
    35    19    46 1   
    36    19    47 1   
    37    20    21 1   
    38    21    22 1   
    39    21    48 1   
    40    21    49 1   
    41    22    50 1   
    42    22    51 1   
    43    23    24 ar  
    44    23    28 ar  
    45    24    25 ar  
    46    24    52 1   
    47    25    26 ar  
    48    25    53 1   
    49    26    27 ar  
    50    27    28 ar  
    51    27    29 1   
    52    28    54 1   
    53    29    30 1   
    54    29    55 1   
    55    30    31 1   
    56    30    35 1   
    57    30    56 1   
    58    31    32 1   
    59    31    57 1   
    60    31    58 1   
    61    32    33 1   
    62    32    59 1   
    63    32    60 1   
    64    33    34 1   
    65    33    61 1   
    66    33    62 1   
    67    34    35 1   
    68    34    63 1   
    69    34    64 1   
    70    35    65 1   
    71    35    66 1   
@<TRIPOS>SUBSTRUCTURE
     1 589         1 TEMP              0 ****  ****    0 ROOT
