@<TRIPOS>MOLECULE
58A
  151   152     1     0     0
SMALL
No Charge or Current Charge


@<TRIPOS>ATOM
      1 OAA         -4.5690    -2.8970     0.7380 o          1 58A      -0.548000
      2 CAB         -5.2070    -2.9610     1.7740 c          1 58A       0.719400
      3 NAC         -6.5700    -2.8400     1.7140 nc         1 58A      -0.788100
      4 CAD         -7.2780    -2.9390     2.7840 cd         1 58A       0.785500
      5 NAE         -8.5740    -2.7950     2.6130 nv         1 58A      -1.049200
      6 CAF         -6.7590    -3.1830     4.0680 cd         1 58A      -0.514600
      7 CAG         -5.3960    -3.3190     4.1770 cc         1 58A       0.049600
      8 NAH         -4.6120    -3.2010     3.0330 n          1 58A      -0.302000
      9 C1          -3.1330    -3.2660     3.1740 c5         1 58A       0.315700
     10 O4          -2.4470    -2.1990     2.4960 os         1 58A      -0.414000
     11 C2          -2.6150    -4.6260     2.5610 c5         1 58A       0.099300
     12 O2          -1.8470    -5.4070     3.4840 oh         1 58A      -0.736000
     13 C3          -1.6440    -4.1120     1.4500 c5         1 58A       0.089300
     14 O3          -0.5730    -5.0490     1.2290 oh         1 58A      -0.700000
     15 C4          -1.1870    -2.7490     2.0580 c5         1 58A       0.136300
     16 C5          -0.4730    -1.7940     1.0640 c3         1 58A       0.242600
     17 O5          -0.3580    -0.4880     1.6500 os         1 58A      -0.591400
     18 PAR          1.0670     0.0930     2.1230 p5         1 58A       1.460800
     19 OAT          2.0810    -0.1350     1.0510 o          1 58A      -0.842000
     20 OAS          0.8810     1.5410     2.4400 o          1 58A      -0.842000
     21 OAU          1.2690    -0.8310     3.3860 os         1 58A      -0.726800
     22 PAV          2.2800    -0.1900     4.4160 p5         1 58A       1.472800
     23 OAX          3.4750     0.4580     3.7970 o          1 58A      -0.845500
     24 OAW          1.6060     0.7000     5.4070 o          1 58A      -0.845500
     25 OAY          2.7860    -1.5420     5.1370 os         1 58A      -0.592400
     26 CAZ          2.1070    -2.1550     6.2540 c3         1 58A       0.227600
     27 CBA          1.2130    -3.3760     5.8390 c3         1 58A       0.132300
     28 OBB          1.4330    -3.7570     4.4590 os         1 58A      -0.422100
     29 CBU          2.6360    -4.3210     4.1160 c          1 58A       0.629100
     30 OCK          3.4580    -4.7490     4.9180 o          1 58A      -0.531000
     31 CBV          2.7390    -4.5570     2.6110 c3         1 58A      -0.142400
     32 CBW          3.7400    -3.5800     1.9540 c3         1 58A      -0.052400
     33 CBX          3.8370    -3.7610     0.4230 c3         1 58A      -0.084400
     34 CBY          4.8580    -2.8080    -0.2360 c3         1 58A      -0.069400
     35 CBZ          4.9530    -2.9910    -1.7670 c3         1 58A      -0.075400
     36 CCA          5.9770    -2.0410    -2.4270 c3         1 58A      -0.071400
     37 CCB          6.0750    -2.2220    -3.9560 c3         1 58A      -0.048200
     38 CCC          7.0880    -1.2840    -4.5780 c2         1 58A      -0.190200
     39 CCD          8.2180    -1.6650    -5.1940 c2         1 58A      -0.250200
     40 CCE          9.2310    -0.7280    -5.8200 c3         1 58A      -0.033200
     41 CCF         10.5920    -0.7770    -5.0960 c3         1 58A      -0.074400
     42 CCG         11.6420     0.1730    -5.7120 c3         1 58A      -0.073400
     43 CCH         13.0040     0.1220    -4.9840 c3         1 58A      -0.075400
     44 CCI         14.0540     1.0720    -5.6000 c3         1 58A      -0.073400
     45 CCJ         15.4160     1.0220    -4.8730 c3         1 58A      -0.076400
     46 CBC         -0.3150    -3.2340     6.0930 c3         1 58A       0.161600
     47 OBD         -0.8670    -2.0950     5.4030 os         1 58A      -0.418100
     48 CBE         -1.0620    -0.9170     6.0770 c          1 58A       0.645100
     49 OCL         -0.9420    -0.7820     7.2880 o          1 58A      -0.542000
     50 CBF         -1.7080     0.1300     5.1770 c3         1 58A      -0.127400
     51 CBG         -3.2490     0.0150     5.1840 c3         1 58A      -0.059400
     52 CBH         -3.9210     0.9150     4.1260 c3         1 58A      -0.086400
     53 CBI         -5.4570     0.7340     4.0690 c3         1 58A      -0.067400
     54 CBJ         -6.1780     1.6270     3.0270 c3         1 58A      -0.066400
     55 CBK         -6.3480     1.0190     1.6110 c3         1 58A      -0.068400
     56 CBL         -5.0410     0.7250     0.8430 c3         1 58A      -0.055200
     57 CBM         -5.3060     0.3230    -0.5920 c2         1 58A      -0.183200
     58 CBN         -4.9730     1.0450    -1.6740 c2         1 58A      -0.250200
     59 CBO         -5.2270     0.6340    -3.1090 c3         1 58A      -0.033200
     60 CBP         -6.2240     1.5760    -3.8150 c3         1 58A      -0.072400
     61 CBQ         -6.5050     1.1760    -5.2800 c3         1 58A      -0.075400
     62 CBR         -7.5050     2.1200    -5.9840 c3         1 58A      -0.074400
     63 CBS         -7.7870     1.7190    -7.4490 c3         1 58A      -0.075400
     64 CBT         -8.7860     2.6630    -8.1520 c3         1 58A      -0.075400
     65 H1          -8.8110    -2.3720     1.7280 hn         1 58A       0.491000
     66 H2          -9.0910    -2.4650     3.4160 hn         1 58A       0.491000
     67 H3          -7.4090    -3.2630     4.9300 ha         1 58A       0.193000
     68 H4          -4.8380    -3.5090     5.0910 h4         1 58A       0.209000
     69 H5          -2.9000    -3.2270     4.2440 h2         1 58A       0.068700
     70 H6          -3.4290    -5.2260     2.1300 h1         1 58A       0.057700
     71 H7          -1.0290    -5.5970     2.9530 ho         1 58A       0.533000
     72 H8          -2.1960    -3.9310     0.5150 h1         1 58A       0.074700
     73 H9          -0.6920    -5.4300     0.3260 ho         1 58A       0.494000
     74 H10         -0.5340    -2.8980     2.9280 h1         1 58A       0.115700
     75 H11          0.5090    -2.2170     0.8140 h1         1 58A       0.034700
     76 H12         -1.0600    -1.7390     0.1380 h1         1 58A       0.034700
     77 H15          2.8590    -2.5230     6.9650 h1         1 58A       0.028200
     78 H16          1.5090    -1.4240     6.8090 h1         1 58A       0.028200
     79 H17          1.5160    -4.2110     6.4840 h1         1 58A       0.022700
     80 H18          3.0690    -5.5860     2.4330 hc         1 58A       0.089200
     81 H19          1.7610    -4.3820     2.1550 hc         1 58A       0.089200
     82 H20          3.4380    -2.5500     2.1780 hc         1 58A       0.042700
     83 H21          4.7320    -3.7260     2.4010 hc         1 58A       0.042700
     84 H22          4.1170    -4.7980     0.1990 hc         1 58A       0.055200
     85 H23          2.8480    -3.5930    -0.0220 hc         1 58A       0.055200
     86 H24          4.5790    -1.7710    -0.0130 hc         1 58A       0.031700
     87 H25          5.8470    -2.9770     0.2090 hc         1 58A       0.031700
     88 H26          5.2300    -4.0290    -1.9890 hc         1 58A       0.038700
     89 H27          3.9650    -2.8200    -2.2110 hc         1 58A       0.038700
     90 H28          5.7020    -1.0030    -2.2040 hc         1 58A       0.036200
     91 H29          6.9660    -2.2120    -1.9830 hc         1 58A       0.036200
     92 H30          6.3360    -3.2650    -4.1750 hc         1 58A       0.044200
     93 H31          5.0880    -2.0490    -4.4040 hc         1 58A       0.044200
     94 H32          6.8310    -0.2260    -4.4950 ha         1 58A       0.164000
     95 H34          8.4720    -2.7230    -5.2780 ha         1 58A       0.163000
     96 H36          9.3730    -0.9910    -6.8750 hc         1 58A       0.035700
     97 H37          8.8560     0.3030    -5.8040 hc         1 58A       0.035700
     98 H38         10.4440    -0.5170    -4.0400 hc         1 58A       0.042700
     99 H39         10.9750    -1.8050    -5.1210 hc         1 58A       0.042700
    100 H40         11.7880    -0.0880    -6.7680 hc         1 58A       0.033200
    101 H41         11.2580     1.2000    -5.6850 hc         1 58A       0.033200
    102 H42         12.8580     0.3820    -3.9280 hc         1 58A       0.039700
    103 H43         13.3880    -0.9050    -5.0110 hc         1 58A       0.039700
    104 H44         14.2000     0.8120    -6.6560 hc         1 58A       0.034700
    105 H45         13.6700     2.1000    -5.5740 hc         1 58A       0.034700
    106 H46         15.2700     1.2820    -3.8170 hc         1 58A       0.038200
    107 H47         15.8000    -0.0060    -4.8990 hc         1 58A       0.038200
    108 H49         -0.7980    -4.1480     5.7270 h1         1 58A       0.041700
    109 H50         -0.5090    -3.1920     7.1720 h1         1 58A       0.041700
    110 H51         -1.4110     1.1270     5.5170 hc         1 58A       0.112200
    111 H52         -1.3630    -0.0450     4.1530 hc         1 58A       0.112200
    112 H53         -3.5330    -1.0270     4.9960 hc         1 58A       0.016200
    113 H54         -3.6290     0.2720     6.1800 hc         1 58A       0.016200
    114 H55         -3.6900     1.9640     4.3490 hc         1 58A       0.063200
    115 H56         -3.4780     0.6970     3.1500 hc         1 58A       0.063200
    116 H57         -5.7010    -0.3190     3.8800 hc         1 58A       0.019700
    117 H58         -5.8620     0.9710     5.0610 hc         1 58A       0.019700
    118 H59         -7.1830     1.8430     3.4100 hc         1 58A       0.023700
    119 H60         -5.6700     2.5970     2.9540 hc         1 58A       0.023700
    120 H61         -6.9370     0.0970     1.6850 hc         1 58A       0.025200
    121 H62         -6.9480     1.7180     1.0160 hc         1 58A       0.025200
    122 H63         -4.3950     1.6100     0.8800 hc         1 58A       0.075700
    123 H64         -4.4990    -0.0860     1.3420 hc         1 58A       0.075700
    124 H65         -5.8010    -0.6450    -0.7010 ha         1 58A       0.169000
    125 H67         -4.4730     2.0090    -1.5630 ha         1 58A       0.175000
    126 H69         -4.2810     0.6280    -3.6640 hc         1 58A       0.039700
    127 H70         -5.6180    -0.3910    -3.1490 hc         1 58A       0.039700
    128 H71         -7.1680     1.5830    -3.2550 hc         1 58A       0.035700
    129 H72         -5.8300     2.6000    -3.7900 hc         1 58A       0.035700
    130 H73         -5.5610     1.1690    -5.8390 hc         1 58A       0.035700
    131 H74         -6.9000     0.1520    -5.3040 hc         1 58A       0.035700
    132 H75         -8.4480     2.1280    -5.4250 hc         1 58A       0.035200
    133 H76         -7.1100     3.1440    -5.9610 hc         1 58A       0.035200
    134 H77         -6.8430     1.7120    -8.0080 hc         1 58A       0.035700
    135 H78         -8.1810     0.6950    -7.4720 hc         1 58A       0.035700
    136 H79         -9.7300     2.6700    -7.5930 hc         1 58A       0.035200
    137 H80         -8.3920     3.6870    -8.1300 hc         1 58A       0.035200
    138 C6          16.4660     1.9720    -5.4880 c3         1 58A      -0.074400
    139 C7          17.8240     1.9220    -4.7630 c3         1 58A      -0.088100
    140 C8          -9.0680     2.2620    -9.6170 c3         1 58A      -0.075400
    141 C9         -10.0650     3.2030   -10.3190 c3         1 58A      -0.087100
    142 H33         16.6160     1.7130    -6.5440 hc         1 58A       0.034200
    143 H35         16.0860     3.0010    -5.4620 hc         1 58A       0.034200
    144 H48         18.2480     0.9110    -4.8020 hc         1 58A       0.029367
    145 H66         18.5350     2.6110    -5.2340 hc         1 58A       0.029367
    146 H68         17.7130     2.2110    -3.7110 hc         1 58A       0.029367
    147 H81         -8.1270     2.2550   -10.1800 hc         1 58A       0.035700
    148 H82         -9.4650     1.2390    -9.6440 hc         1 58A       0.035700
    149 H83         -9.6810     4.2300   -10.3400 hc         1 58A       0.027033
    150 H84        -10.2340     2.8790   -11.3530 hc         1 58A       0.027033
    151 H85        -11.0310     3.2050    -9.7980 hc         1 58A       0.027033
@<TRIPOS>BOND
     1     1     2 2   
     2     2     3 1   
     3     2     8 1   
     4     3     4 2   
     5     4     5 1   
     6     4     6 1   
     7     5    65 1   
     8     5    66 1   
     9     6     7 2   
    10     6    67 1   
    11     7     8 1   
    12     7    68 1   
    13     8     9 1   
    14     9    10 1   
    15     9    11 1   
    16     9    69 1   
    17    10    15 1   
    18    11    12 1   
    19    11    13 1   
    20    11    70 1   
    21    12    71 1   
    22    13    14 1   
    23    13    15 1   
    24    13    72 1   
    25    14    73 1   
    26    15    16 1   
    27    15    74 1   
    28    16    17 1   
    29    16    75 1   
    30    16    76 1   
    31    17    18 1   
    32    18    19 1   
    33    18    20 1   
    34    18    21 1   
    35    21    22 1   
    36    22    23 1   
    37    22    24 1   
    38    22    25 1   
    39    25    26 1   
    40    26    27 1   
    41    26    77 1   
    42    26    78 1   
    43    27    28 1   
    44    27    46 1   
    45    27    79 1   
    46    28    29 1   
    47    29    30 2   
    48    29    31 1   
    49    31    32 1   
    50    31    80 1   
    51    31    81 1   
    52    32    33 1   
    53    32    82 1   
    54    32    83 1   
    55    33    34 1   
    56    33    84 1   
    57    33    85 1   
    58    34    35 1   
    59    34    86 1   
    60    34    87 1   
    61    35    36 1   
    62    35    88 1   
    63    35    89 1   
    64    36    37 1   
    65    36    90 1   
    66    36    91 1   
    67    37    38 1   
    68    37    92 1   
    69    37    93 1   
    70    38    39 2   
    71    38    94 1   
    72    39    40 1   
    73    39    95 1   
    74    40    41 1   
    75    40    96 1   
    76    40    97 1   
    77    41    42 1   
    78    41    98 1   
    79    41    99 1   
    80    42    43 1   
    81    42   100 1   
    82    42   101 1   
    83    43    44 1   
    84    43   102 1   
    85    43   103 1   
    86    44    45 1   
    87    44   104 1   
    88    44   105 1   
    89    45   106 1   
    90    45   107 1   
    91    45   138 1   
    92    46    47 1   
    93    46   108 1   
    94    46   109 1   
    95    47    48 1   
    96    48    49 2   
    97    48    50 1   
    98    50    51 1   
    99    50   110 1   
   100    50   111 1   
   101    51    52 1   
   102    51   112 1   
   103    51   113 1   
   104    52    53 1   
   105    52   114 1   
   106    52   115 1   
   107    53    54 1   
   108    53   116 1   
   109    53   117 1   
   110    54    55 1   
   111    54   118 1   
   112    54   119 1   
   113    55    56 1   
   114    55   120 1   
   115    55   121 1   
   116    56    57 1   
   117    56   122 1   
   118    56   123 1   
   119    57    58 2   
   120    57   124 1   
   121    58    59 1   
   122    58   125 1   
   123    59    60 1   
   124    59   126 1   
   125    59   127 1   
   126    60    61 1   
   127    60   128 1   
   128    60   129 1   
   129    61    62 1   
   130    61   130 1   
   131    61   131 1   
   132    62    63 1   
   133    62   132 1   
   134    62   133 1   
   135    63    64 1   
   136    63   134 1   
   137    63   135 1   
   138    64   136 1   
   139    64   137 1   
   140    64   140 1   
   141   138   139 1   
   142   138   142 1   
   143   138   143 1   
   144   139   144 1   
   145   139   145 1   
   146   139   146 1   
   147   140   141 1   
   148   140   147 1   
   149   140   148 1   
   150   141   149 1   
   151   141   150 1   
   152   141   151 1   
@<TRIPOS>SUBSTRUCTURE
     1 58A         1 TEMP              0 ****  ****    0 ROOT
