@<TRIPOS>MOLECULE
58A
  151   152     1     0     0
SMALL
bcc


@<TRIPOS>ATOM
      1 OAA         -4.8050    -3.5980     0.8760 o          1 58A      -0.623500
      2 CAB         -5.3570    -3.7970     1.9480 c          1 58A       0.861900
      3 NAC         -6.6960    -3.9180     2.0660 nc         1 58A      -0.788100
      4 CAD         -7.2580    -4.2080     3.2220 cd         1 58A       0.785500
      5 NAE         -8.5850    -4.3200     3.2690 nv         1 58A      -0.938800
      6 CAF         -6.4910    -4.4050     4.4100 cd         1 58A      -0.464600
      7 CAG         -5.1610    -4.2320     4.2940 cc         1 58A       0.099600
      8 NAH         -4.5760    -3.9210     3.1110 n          1 58A      -0.369000
      9 C1          -3.1420    -3.6870     3.0760 c5         1 58A       0.292500
     10 O4          -2.9000    -2.3480     2.7600 os         1 58A      -0.367600
     11 C2          -2.3240    -4.5580     2.0990 c5         1 58A       0.076100
     12 O2          -1.3010    -5.2080     2.8140 oh         1 58A      -0.613800
     13 C3          -1.7330    -3.5110     1.1380 c5         1 58A       0.066100
     14 O3          -0.4430    -3.8460     0.6950 oh         1 58A      -0.577800
     15 C4          -1.6980    -2.2590     2.0130 c5         1 58A       0.113100
     16 C5          -1.6630    -0.9800     1.2110 c3         1 58A       0.219400
     17 O5          -1.6170     0.1760     2.0160 os         1 58A      -0.568200
     18 PAR         -0.2200     0.9780     2.3320 p5         1 58A       1.460800
     19 OAT          0.7200     0.8190     1.1740 o          1 58A      -0.842000
     20 OAS         -0.6440     2.3290     2.8110 o          1 58A      -0.842000
     21 OAU          0.3380     0.0850     3.5930 os         1 58A      -0.726800
     22 PAV          1.2430     0.6570     4.8280 p5         1 58A       1.472800
     23 OAX          2.1590     1.7290     4.3290 o          1 58A      -0.845500
     24 OAW          0.3820     0.8740     6.0350 o          1 58A      -0.845500
     25 OAY          2.2170    -0.6440     5.0930 os         1 58A      -0.569200
     26 CAZ          1.9570    -1.6510     6.0340 c3         1 58A       0.204400
     27 CBA          1.3270    -2.9230     5.4070 c3         1 58A       0.109100
     28 OBB          1.3630    -2.8600     3.9890 os         1 58A      -0.398900
     29 CBU          2.5500    -2.7970     3.3930 c          1 58A       0.678100
     30 OCK          3.5850    -3.0600     3.9560 o          1 58A      -0.580000
     31 CBV          2.4250    -2.3960     1.9520 c3         1 58A      -0.142400
     32 CBW          3.7480    -2.0070     1.3130 c3         1 58A      -0.052400
     33 CBX          3.5640    -1.5670    -0.1330 c3         1 58A      -0.084400
     34 CBY          4.8650    -1.0970    -0.7720 c3         1 58A      -0.069400
     35 CBZ          4.7220    -0.7220    -2.2420 c3         1 58A      -0.075400
     36 CCA          6.0260    -0.2210    -2.8530 c3         1 58A      -0.071400
     37 CCB          5.9190     0.0750    -4.3500 c3         1 58A      -0.048200
     38 CCC          7.1980     0.6230    -4.9010 c2         1 58A      -0.140200
     39 CCD          8.0180    -0.0260    -5.7220 c2         1 58A      -0.200200
     40 CCE          9.3420     0.4850    -6.1960 c3         1 58A      -0.033200
     41 CCF         10.5080    -0.2910    -5.5800 c3         1 58A      -0.074400
     42 CCG         11.8710     0.1720    -6.0800 c3         1 58A      -0.073400
     43 CCH         13.0270    -0.5680    -5.4180 c3         1 58A      -0.075400
     44 CCI         14.3970    -0.1090    -5.9010 c3         1 58A      -0.073400
     45 CCJ         15.5460    -0.8390    -5.2180 c3         1 58A      -0.076400
     46 CBC         -0.1100    -3.1690     5.8140 c3         1 58A       0.138400
     47 OBD         -0.9570    -2.0950     5.4330 os         1 58A      -0.394900
     48 CBE         -1.5620    -1.3400     6.3480 c          1 58A       0.694100
     49 OCL         -1.4560    -1.5150     7.5390 o          1 58A      -0.591000
     50 CBF         -2.4660    -0.3270     5.7110 c3         1 58A      -0.127400
     51 CBG         -3.9040    -0.8410     5.6160 c3         1 58A      -0.059400
     52 CBH         -4.7530     0.0810     4.7520 c3         1 58A      -0.086400
     53 CBI         -6.1490    -0.4650     4.4710 c3         1 58A      -0.067400
     54 CBJ         -6.9650     0.3700     3.4790 c3         1 58A      -0.066400
     55 CBK         -6.8200    -0.0360     2.0120 c3         1 58A      -0.068400
     56 CBL         -5.4020     0.0660     1.4460 c3         1 58A      -0.055200
     57 CBM         -5.3470    -0.2470    -0.0150 c2         1 58A      -0.133200
     58 CBN         -4.9630     0.5990    -0.9670 c2         1 58A      -0.200200
     59 CBO         -4.9080     0.2850    -2.4290 c3         1 58A      -0.033200
     60 CBP         -5.8580     1.1510    -3.2580 c3         1 58A      -0.072400
     61 CBQ         -5.7570     0.8780    -4.7530 c3         1 58A      -0.075400
     62 CBR         -6.7070     1.7280    -5.5880 c3         1 58A      -0.074400
     63 CBS         -6.5960     1.4580    -7.0830 c3         1 58A      -0.075400
     64 CBT         -7.5460     2.3050    -7.9230 c3         1 58A      -0.075400
     65 H1          -9.1360    -4.1520     2.4450 hn         1 58A       0.435800
     66 H2          -9.0670    -4.5220     4.1280 hn         1 58A       0.435800
     67 H3          -6.9430    -4.6540     5.3580 ha         1 58A       0.143000
     68 H4          -4.5000    -4.3340     5.1440 h4         1 58A       0.159000
     69 H5          -2.7880    -3.9170     4.0870 h2         1 58A       0.068700
     70 H6          -2.9470    -5.2960     1.5850 h1         1 58A       0.057700
     71 H7          -0.4720    -5.0140     2.3550 ho         1 58A       0.434000
     72 H8          -2.4200    -3.3590     0.3030 h1         1 58A       0.074700
     73 H9          -0.5180    -4.4100    -0.0810 ho         1 58A       0.395000
     74 H10         -0.8290    -2.2960     2.6840 h1         1 58A       0.115700
     75 H11         -0.7990    -1.0310     0.5410 h1         1 58A       0.034700
     76 H12         -2.5630    -0.9170     0.5910 h1         1 58A       0.034700
     77 H15          2.9130    -1.9260     6.4810 h1         1 58A       0.028200
     78 H16          1.3210    -1.2880     6.8460 h1         1 58A       0.028200
     79 H17          1.8860    -3.7960     5.7600 h1         1 58A       0.022700
     80 H18          1.9640    -3.2250     1.4070 hc         1 58A       0.089200
     81 H19          1.7160    -1.5700     1.8800 hc         1 58A       0.089200
     82 H20          4.2020    -1.1900     1.8830 hc         1 58A       0.042700
     83 H21          4.4530    -2.8410     1.3570 hc         1 58A       0.042700
     84 H22          3.1490    -2.3960    -0.7180 hc         1 58A       0.055200
     85 H23          2.8220    -0.7620    -0.1730 hc         1 58A       0.055200
     86 H24          5.2500    -0.2380    -0.2110 hc         1 58A       0.031700
     87 H25          5.6200    -1.8850    -0.6750 hc         1 58A       0.031700
     88 H26          4.3670    -1.5920    -2.8050 hc         1 58A       0.038700
     89 H27          3.9500     0.0490    -2.3520 hc         1 58A       0.038700
     90 H28          6.3500     0.6800    -2.3220 hc         1 58A       0.036200
     91 H29          6.8120    -0.9660    -2.6970 hc         1 58A       0.036200
     92 H30          5.6430    -0.8410    -4.8820 hc         1 58A       0.044200
     93 H31          5.1070     0.7920    -4.5140 hc         1 58A       0.044200
     94 H32          7.4780     1.6170    -4.5580 ha         1 58A       0.114000
     95 H34          7.7450    -1.0270    -6.0540 ha         1 58A       0.113000
     96 H36          9.4030     0.4080    -7.2870 hc         1 58A       0.035700
     97 H37          9.4430     1.5470    -5.9510 hc         1 58A       0.035700
     98 H38         10.4630    -0.1880    -4.4910 hc         1 58A       0.042700
     99 H39         10.3880    -1.3590    -5.7880 hc         1 58A       0.042700
    100 H40         11.9260     0.0420    -7.1660 hc         1 58A       0.033200
    101 H41         11.9770     1.2480    -5.8980 hc         1 58A       0.033200
    102 H42         12.9630    -0.4370    -4.3320 hc         1 58A       0.039700
    103 H43         12.9200    -1.6430    -5.5980 hc         1 58A       0.039700
    104 H44         14.4690    -0.2520    -6.9850 hc         1 58A       0.034700
    105 H45         14.4990     0.9680    -5.7310 hc         1 58A       0.034700
    106 H46         15.4720    -0.6980    -4.1340 hc         1 58A       0.038200
    107 H47         15.4450    -1.9170    -5.3880 hc         1 58A       0.038200
    108 H49         -0.4830    -4.0630     5.3110 h1         1 58A       0.041700
    109 H50         -0.1420    -3.3440     6.8900 h1         1 58A       0.041700
    110 H51         -2.4360     0.5840     6.3100 hc         1 58A       0.112200
    111 H52         -2.1070    -0.0910     4.7130 hc         1 58A       0.112200
    112 H53         -3.9030    -1.8340     5.1650 hc         1 58A       0.016200
    113 H54         -4.3400    -0.9490     6.6140 hc         1 58A       0.016200
    114 H55         -4.8390     1.0630     5.2320 hc         1 58A       0.063200
    115 H56         -4.2180     0.2460     3.8160 hc         1 58A       0.063200
    116 H57         -6.0690    -1.4920     4.0980 hc         1 58A       0.019700
    117 H58         -6.6910    -0.5390     5.4190 hc         1 58A       0.019700
    118 H59         -8.0260     0.2990     3.7360 hc         1 58A       0.023700
    119 H60         -6.7040     1.4280     3.5920 hc         1 58A       0.023700
    120 H61         -7.1750    -1.0650     1.8900 hc         1 58A       0.025200
    121 H62         -7.4870     0.5900     1.4120 hc         1 58A       0.025200
    122 H63         -5.0010     1.0680     1.6280 hc         1 58A       0.075700
    123 H64         -4.7490    -0.6370     1.9700 hc         1 58A       0.075700
    124 H65         -5.6390    -1.2580    -0.2920 ha         1 58A       0.119000
    125 H67         -4.6630     1.6070    -0.6840 ha         1 58A       0.125000
    126 H69         -3.8870     0.4400    -2.7960 hc         1 58A       0.039700
    127 H70         -5.1400    -0.7710    -2.5920 hc         1 58A       0.039700
    128 H71         -6.8850     0.9800    -2.9210 hc         1 58A       0.035700
    129 H72         -5.6460     2.2090    -3.0660 hc         1 58A       0.035700
    130 H73         -4.7270     1.0560    -5.0830 hc         1 58A       0.035700
    131 H74         -5.9580    -0.1820    -4.9420 hc         1 58A       0.035700
    132 H75         -7.7370     1.5470    -5.2610 hc         1 58A       0.035200
    133 H76         -6.5090     2.7880    -5.3960 hc         1 58A       0.035200
    134 H77         -5.5660     1.6410    -7.4090 hc         1 58A       0.035700
    135 H78         -6.7920     0.3970    -7.2750 hc         1 58A       0.035700
    136 H79         -8.5770     2.1180    -7.6030 hc         1 58A       0.035200
    137 H80         -7.3540     3.3660    -7.7270 hc         1 58A       0.035200
    138 C6          16.9210    -0.3830    -5.6910 c3         1 58A      -0.074400
    139 C7          18.0600    -1.1170    -4.9950 c3         1 58A      -0.088100
    140 C8          -7.4270     2.0400    -9.4190 c3         1 58A      -0.075400
    141 C9          -8.3780     2.8900   -10.2500 c3         1 58A      -0.087100
    142 H33         16.9980    -0.5290    -6.7730 hc         1 58A       0.034200
    143 H35         17.0210     0.6940    -5.5230 hc         1 58A       0.034200
    144 H48         18.0020    -2.1920    -5.1730 hc         1 58A       0.029367
    145 H66         19.0330    -0.7750    -5.3480 hc         1 58A       0.029367
    146 H68         18.0260    -0.9610    -3.9150 hc         1 58A       0.029367
    147 H81         -6.3960     2.2270    -9.7380 hc         1 58A       0.035700
    148 H82         -7.6170     0.9810    -9.6150 hc         1 58A       0.035700
    149 H83         -8.1990     3.9550   -10.0910 hc         1 58A       0.027033
    150 H84         -8.2640     2.6930   -11.3170 hc         1 58A       0.027033
    151 H85         -9.4180     2.6890    -9.9880 hc         1 58A       0.027033
@<TRIPOS>BOND
     1     1     2 2   
     2     2     3 1   
     3     2     8 1   
     4     3     4 2   
     5     4     5 1   
     6     4     6 1   
     7     5    65 1   
     8     5    66 1   
     9     6     7 2   
    10     6    67 1   
    11     7     8 1   
    12     7    68 1   
    13     8     9 1   
    14     9    10 1   
    15     9    11 1   
    16     9    69 1   
    17    10    15 1   
    18    11    12 1   
    19    11    13 1   
    20    11    70 1   
    21    12    71 1   
    22    13    14 1   
    23    13    15 1   
    24    13    72 1   
    25    14    73 1   
    26    15    16 1   
    27    15    74 1   
    28    16    17 1   
    29    16    75 1   
    30    16    76 1   
    31    17    18 1   
    32    18    19 1   
    33    18    20 1   
    34    18    21 1   
    35    21    22 1   
    36    22    23 1   
    37    22    24 1   
    38    22    25 1   
    39    25    26 1   
    40    26    27 1   
    41    26    77 1   
    42    26    78 1   
    43    27    28 1   
    44    27    46 1   
    45    27    79 1   
    46    28    29 1   
    47    29    30 2   
    48    29    31 1   
    49    31    32 1   
    50    31    80 1   
    51    31    81 1   
    52    32    33 1   
    53    32    82 1   
    54    32    83 1   
    55    33    34 1   
    56    33    84 1   
    57    33    85 1   
    58    34    35 1   
    59    34    86 1   
    60    34    87 1   
    61    35    36 1   
    62    35    88 1   
    63    35    89 1   
    64    36    37 1   
    65    36    90 1   
    66    36    91 1   
    67    37    38 1   
    68    37    92 1   
    69    37    93 1   
    70    38    39 2   
    71    38    94 1   
    72    39    40 1   
    73    39    95 1   
    74    40    41 1   
    75    40    96 1   
    76    40    97 1   
    77    41    42 1   
    78    41    98 1   
    79    41    99 1   
    80    42    43 1   
    81    42   100 1   
    82    42   101 1   
    83    43    44 1   
    84    43   102 1   
    85    43   103 1   
    86    44    45 1   
    87    44   104 1   
    88    44   105 1   
    89    45   106 1   
    90    45   107 1   
    91    45   138 1   
    92    46    47 1   
    93    46   108 1   
    94    46   109 1   
    95    47    48 1   
    96    48    49 2   
    97    48    50 1   
    98    50    51 1   
    99    50   110 1   
   100    50   111 1   
   101    51    52 1   
   102    51   112 1   
   103    51   113 1   
   104    52    53 1   
   105    52   114 1   
   106    52   115 1   
   107    53    54 1   
   108    53   116 1   
   109    53   117 1   
   110    54    55 1   
   111    54   118 1   
   112    54   119 1   
   113    55    56 1   
   114    55   120 1   
   115    55   121 1   
   116    56    57 1   
   117    56   122 1   
   118    56   123 1   
   119    57    58 2   
   120    57   124 1   
   121    58    59 1   
   122    58   125 1   
   123    59    60 1   
   124    59   126 1   
   125    59   127 1   
   126    60    61 1   
   127    60   128 1   
   128    60   129 1   
   129    61    62 1   
   130    61   130 1   
   131    61   131 1   
   132    62    63 1   
   133    62   132 1   
   134    62   133 1   
   135    63    64 1   
   136    63   134 1   
   137    63   135 1   
   138    64   136 1   
   139    64   137 1   
   140    64   140 1   
   141   138   139 1   
   142   138   142 1   
   143   138   143 1   
   144   139   144 1   
   145   139   145 1   
   146   139   146 1   
   147   140   141 1   
   148   140   147 1   
   149   140   148 1   
   150   141   149 1   
   151   141   150 1   
   152   141   151 1   
@<TRIPOS>SUBSTRUCTURE
     1 58A         1 TEMP              0 ****  ****    0 ROOT
