@<TRIPOS>MOLECULE
58B
   29    28     1     0     0
SMALL
abcg2


@<TRIPOS>ATOM
      1 C10          1.5960    -0.5890    -0.2420 c3         1 58B      -0.063400
      2 N01         -4.2490     1.1820    -0.2970 n8         1 58B      -0.992200
      3 C02         -2.8230     1.3440    -0.4770 c3         1 58B       0.088500
      4 C03         -2.3810     2.7120     0.0430 c3         1 58B      -0.086100
      5 N05         -0.7420     0.1110    -0.2690 ns         1 58B      -0.461900
      6 C06          0.1770    -0.8570     0.2670 c3         1 58B       0.021700
      7 C07         -0.2550    -2.2750    -0.1120 c          1 58B       0.597100
      8 N08          0.1590    -3.2250     0.7370 nt         1 58B      -0.606000
      9 O09         -0.8890    -2.5070    -1.1290 o          1 58B      -0.627100
     10 C11          2.1410     0.7590     0.2050 c3         1 58B      -0.212400
     11 C12          3.6110     1.0240    -0.1720 c          1 58B       0.717000
     12 O13          4.2270     0.1260    -0.7780 o          1 58B      -0.735500
     13 O14          4.0660     2.1350     0.1720 o          1 58B      -0.735500
     14 O15         -2.4020    -0.3780     1.1670 o          1 58B      -0.638100
     15 H1           2.2470    -1.3830     0.1280 hc         1 58B       0.056700
     16 H2           1.6110    -0.6680    -1.3330 hc         1 58B       0.056700
     17 H6          -2.6140     1.3040    -1.5500 h1         1 58B       0.065700
     18 H7          -2.5600     2.7960     1.1170 hc         1 58B       0.044700
     19 H8          -1.3210     2.8860    -0.1350 hc         1 58B       0.044700
     20 H9          -2.9440     3.5000    -0.4570 hc         1 58B       0.044700
     21 H10         -0.5000     0.5610    -1.1390 hn         1 58B       0.327500
     22 H11          0.1800    -0.7690     1.3580 h1         1 58B       0.070700
     23 H12          0.6690    -3.0040     1.5750 hn         1 58B       0.307500
     24 H13         -0.0030    -4.1990     0.5380 hn         1 58B       0.307500
     25 H14          1.5380     1.5760    -0.2040 hc         1 58B       0.021200
     26 H15          2.0430     0.8500     1.2930 hc         1 58B       0.021200
     27 H3          -4.5480     0.2950    -0.6810 hn         1 58B       0.403500
     28 C04         -1.9860     0.2630     0.2120 c          1 58B       0.560100
     29 H4          -4.4620     1.1410     0.6930 hn         1 58B       0.403500
@<TRIPOS>BOND
     1     1     6 1   
     2     1    10 1   
     3     1    15 1   
     4     1    16 1   
     5     2     3 1   
     6     2    27 1   
     7     2    29 1   
     8     3     4 1   
     9     3    17 1   
    10     3    28 1   
    11     4    18 1   
    12     4    19 1   
    13     4    20 1   
    14     5     6 1   
    15     5    21 1   
    16     5    28 1   
    17     6     7 1   
    18     6    22 1   
    19     7     8 1   
    20     7     9 2   
    21     8    23 1   
    22     8    24 1   
    23    10    11 1   
    24    10    25 1   
    25    10    26 1   
    26    11    12 1   
    27    11    13 1   
    28    14    28 2   
@<TRIPOS>SUBSTRUCTURE
     1 58B         1 TEMP              0 ****  ****    0 ROOT
