@<TRIPOS>MOLECULE
58B
   29    28     1     0     0
SMALL
No Charge or Current Charge


@<TRIPOS>ATOM
      1 C10          1.4720    -0.6150    -0.0930 c3         1 58B      -0.063400
      2 N01         -4.1380     1.5060     0.2700 n8         1 58B      -0.992200
      3 C02         -2.7520     1.5140    -0.3070 c3         1 58B       0.088500
      4 C03         -2.2430     2.9670    -0.4050 c3         1 58B      -0.086100
      5 N05         -1.0070    -0.2690    -0.3600 ns         1 58B      -0.461900
      6 C06          0.0450    -1.2040     0.1050 c3         1 58B       0.021700
      7 C07         -0.1170    -2.5890    -0.5950 c          1 58B       0.597100
      8 N08          0.7070    -3.5790    -0.1810 nt         1 58B      -0.606000
      9 O09         -0.9270    -2.8140    -1.4820 o          1 58B      -0.627100
     10 C11          1.7270     0.7370     0.6250 c3         1 58B      -0.212400
     11 C12          3.1970     1.1590     0.4560 c          1 58B       0.717000
     12 O13          4.0070     0.7630     1.2800 o          1 58B      -0.735500
     13 O14          3.4970     1.8230    -0.5240 o          1 58B      -0.735500
     14 O15         -1.5540     0.6460     1.6600 o          1 58B      -0.638100
     15 H1           2.2110    -1.3410     0.2690 hc         1 58B       0.056700
     16 H2           1.6620    -0.4910    -1.1670 hc         1 58B       0.056700
     17 H6          -2.8290     1.1260    -1.3340 h1         1 58B       0.065700
     18 H7          -2.1330     3.4130     0.5910 hc         1 58B       0.044700
     19 H8          -1.2660     2.9970    -0.9010 hc         1 58B       0.044700
     20 H9          -2.9370     3.5860    -0.9870 hc         1 58B       0.044700
     21 H10         -1.2410    -0.2720    -1.3460 hn         1 58B       0.327500
     22 H11         -0.1000    -1.3910     1.1770 h1         1 58B       0.070700
     23 H12          1.3770    -3.4090     0.5540 hn         1 58B       0.307500
     24 H13          0.6360    -4.4900    -0.6090 hn         1 58B       0.307500
     25 H14          1.0680     1.4710     0.1450 hc         1 58B       0.021200
     26 H15          1.5000     0.5630     1.6840 hc         1 58B       0.021200
     27 H3          -4.4920     0.5410     0.2930 hn         1 58B       0.403500
     28 C04         -1.7070     0.6100     0.4440 c          1 58B       0.560100
     29 H4          -4.0770     1.7510     1.2670 hn         1 58B       0.403500
@<TRIPOS>BOND
     1     1     6 1   
     2     1    10 1   
     3     1    15 1   
     4     1    16 1   
     5     2     3 1   
     6     2    27 1   
     7     2    29 1   
     8     3     4 1   
     9     3    17 1   
    10     3    28 1   
    11     4    18 1   
    12     4    19 1   
    13     4    20 1   
    14     5     6 1   
    15     5    21 1   
    16     5    28 1   
    17     6     7 1   
    18     6    22 1   
    19     7     8 1   
    20     7     9 2   
    21     8    23 1   
    22     8    24 1   
    23    10    11 1   
    24    10    25 1   
    25    10    26 1   
    26    11    12 1   
    27    11    13 1   
    28    14    28 2   
@<TRIPOS>SUBSTRUCTURE
     1 58B         1 TEMP              0 ****  ****    0 ROOT
