@<TRIPOS>MOLECULE
58C
   49    53     1     0     0
SMALL
bcc


@<TRIPOS>ATOM
      1 C1           0.3880    -2.7790     0.1500 ca         1 58C      -0.292600
      2 C2           0.9510    -1.4870     0.1990 ca         1 58C       0.455600
      3 C3          -1.0170    -2.8090     0.0550 ca         1 58C       0.489200
      4 C4          -1.1160    -0.5510     0.0820 ca         1 58C       0.902900
      5 C5           2.5460    -3.7860     0.2960 ca         1 58C      -0.105000
      6 C6           3.1370    -2.5020     0.3460 ca         1 58C      -0.215000
      7 C7           1.1940    -3.9360     0.1960 ca         1 58C      -0.120000
      8 C20         -5.5250     0.2420    -0.2840 ca         1 58C       0.090400
      9 C21         -7.6440     0.3100    -0.4130 cc         1 58C       0.415700
     10 N2          -1.7590    -1.7390     0.0210 nb         1 58C      -0.731000
     11 O1           2.8240    -0.1010     0.3500 os         1 58C      -0.294900
     12 N1           0.1870    -0.3840     0.1620 nb         1 58C      -0.752000
     13 C8           2.3720    -1.3610     0.2970 ca         1 58C       0.095800
     14 C9           4.3940     1.5810     0.9180 c6         1 58C      -0.085900
     15 C10          4.2260     0.1610     0.4020 c6         1 58C       0.150100
     16 C11          5.8750     1.9400     0.9940 c6         1 58C      -0.089400
     17 C12          6.5840     1.7700    -0.3470 c6         1 58C       0.147100
     18 C13          6.3620     0.3640    -0.8870 c6         1 58C      -0.089400
     19 C14          4.8810    -0.0020    -0.9640 c6         1 58C      -0.085900
     20 C15         -3.6380     2.1220     0.3960 ca         1 58C      -0.160000
     21 N3          -1.8540     0.5920     0.0670 nu         1 58C      -0.737300
     22 C16         -3.2340     0.8110     0.0510 ca         1 58C       0.156600
     23 C17         -4.9610     2.5090     0.4050 ca         1 58C      -0.103000
     24 C18         -5.9030     1.5460     0.0640 ca         1 58C      -0.110200
     25 C19         -4.1820    -0.1400    -0.3020 ca         1 58C      -0.093000
     26 N4          -7.2700     1.5520    -0.0300 na         1 58C      -0.265300
     27 N5          -6.6410    -0.5070    -0.5790 nd         1 58C      -0.575100
     28 O2           6.0990     2.6810    -1.3170 oh         1 58C      -0.595800
     29 H1          -1.5310    -3.7650     0.0050 h4         1 58C       0.026100
     30 H2           3.1940    -4.6510     0.3370 ha         1 58C       0.132000
     31 H3           4.2140    -2.4480     0.4250 ha         1 58C       0.137000
     32 H4           0.7350    -4.9150     0.1530 ha         1 58C       0.137000
     33 H6           3.8720     2.2760     0.2560 hc         1 58C       0.061200
     34 H7           3.9410     1.6750     1.9070 hc         1 58C       0.061200
     35 H8           4.6980    -0.5210     1.1230 h1         1 58C       0.037700
     36 H9           5.9950     2.9650     1.3560 hc         1 58C       0.047200
     37 H10          6.3720     1.3010     1.7310 hc         1 58C       0.047200
     38 H11          7.6620     1.9210    -0.1920 h1         1 58C       0.030700
     39 H12          6.8240     0.2610    -1.8710 hc         1 58C       0.047200
     40 H13          6.8810    -0.3400    -0.2290 hc         1 58C       0.047200
     41 H14          4.7790    -1.0260    -1.3280 hc         1 58C       0.061200
     42 H15          4.3670     0.6390    -1.6850 hc         1 58C       0.061200
     43 H16         -2.8800     2.8490     0.6630 ha         1 58C       0.130000
     44 H17         -1.2900     1.4210     0.1720 hn         1 58C       0.452800
     45 H18         -5.2410     3.5190     0.6740 ha         1 58C       0.135000
     46 H19         -3.9050    -1.1440    -0.5760 ha         1 58C       0.179000
     47 H20         -7.8900     2.3220     0.1620 hn         1 58C       0.305700
     48 H22          6.1500     3.5690    -0.9500 ho         1 58C       0.401000
     49 H5          -8.6830     0.0570    -0.5570 h5         1 58C       0.059800
@<TRIPOS>BOND
     1     1     2 ar  
     2     1     3 ar  
     3     1     7 ar  
     4     2    12 ar  
     5     2    13 ar  
     6     3    10 ar  
     7     3    29 1   
     8     4    10 ar  
     9     4    12 ar  
    10     4    21 1   
    11     5     6 ar  
    12     5     7 ar  
    13     5    30 1   
    14     6    13 ar  
    15     6    31 1   
    16     7    32 1   
    17     8    24 ar  
    18     8    25 ar  
    19     8    27 1   
    20     9    26 1   
    21     9    27 2   
    22     9    49 1   
    23    11    13 1   
    24    11    15 1   
    25    14    15 1   
    26    14    16 1   
    27    14    33 1   
    28    14    34 1   
    29    15    19 1   
    30    15    35 1   
    31    16    17 1   
    32    16    36 1   
    33    16    37 1   
    34    17    18 1   
    35    17    28 1   
    36    17    38 1   
    37    18    19 1   
    38    18    39 1   
    39    18    40 1   
    40    19    41 1   
    41    19    42 1   
    42    20    22 ar  
    43    20    23 ar  
    44    20    43 1   
    45    21    22 1   
    46    21    44 1   
    47    22    25 ar  
    48    23    24 ar  
    49    23    45 1   
    50    24    26 1   
    51    25    46 1   
    52    26    47 1   
    53    28    48 1   
@<TRIPOS>SUBSTRUCTURE
     1 58C         1 TEMP              0 ****  ****    0 ROOT
