@<TRIPOS>MOLECULE
58C
   49    53     1     0     0
SMALL
No Charge or Current Charge


@<TRIPOS>ATOM
      1 C1           0.4040    -2.8090     0.3220 ca         1 58C      -0.162000
      2 C2           0.9700    -1.5180     0.4570 ca         1 58C       0.062000
      3 C3          -0.9970    -2.9130     0.2250 ca         1 58C       0.160900
      4 C4          -1.1680    -0.6380     0.3740 ca         1 58C       0.376900
      5 C5           2.6080    -3.8240     0.3980 ca         1 58C      -0.087000
      6 C6           3.1890    -2.5520     0.5340 ca         1 58C      -0.197000
      7 C7           1.2170    -3.9550     0.2910 ca         1 58C      -0.102000
      8 C20         -5.5050     0.3770    -0.6390 ca         1 58C       0.090400
      9 C21         -7.6030     0.5020    -1.1500 cc         1 58C       0.415700
     10 N2          -1.7880    -1.8260     0.2550 nb         1 58C      -0.205000
     11 O1           2.9120    -0.1160     0.6970 os         1 58C      -0.318100
     12 N1           0.1570    -0.4340     0.4850 nb         1 58C      -0.226000
     13 C8           2.3780    -1.3910     0.5560 ca         1 58C       0.161100
     14 C9           4.6100     1.6020     1.0200 c6         1 58C      -0.085900
     15 C10          4.3170     0.1630     0.5260 c6         1 58C       0.173300
     16 C11          6.1030     1.9800     0.8200 c6         1 58C      -0.089400
     17 C12          6.5560     1.8150    -0.6550 c6         1 58C       0.170300
     18 C13          6.2330     0.3870    -1.1690 c6         1 58C      -0.089400
     19 C14          4.7400     0.0120    -0.9630 c6         1 58C      -0.085900
     20 C15         -3.8130     1.9770     0.8910 ca         1 58C      -0.142000
     21 N3          -1.9390     0.5180     0.4420 nu         1 58C      -0.930900
     22 C16         -3.3020     0.8090     0.2730 ca         1 58C       0.295000
     23 C17         -5.1700     2.3350     0.7530 ca         1 58C      -0.085000
     24 C18         -5.9770     1.4970    -0.0220 ca         1 58C      -0.110200
     25 C19         -4.1610     0.0030    -0.5140 ca         1 58C      -0.075000
     26 N4          -7.2980     1.5900    -0.3340 na         1 58C      -0.315600
     27 N5          -6.5100    -0.2660    -1.3570 nd         1 58C      -0.575100
     28 O2           5.9240     2.7950    -1.4850 oh         1 58C      -0.658000
     29 H1          -1.4930    -3.8770     0.1230 h4         1 58C       0.026100
     30 H2           3.2390    -4.7110     0.3800 ha         1 58C       0.114000
     31 H3           4.2690    -2.4920     0.6250 ha         1 58C       0.119000
     32 H4           0.7740    -4.9430     0.1880 ha         1 58C       0.119000
     33 H6           3.9680     2.3150     0.4850 hc         1 58C       0.061200
     34 H7           4.3480     1.6850     2.0840 hc         1 58C       0.061200
     35 H8           4.9010    -0.5260     1.1530 h1         1 58C       0.037700
     36 H9           6.2770     3.0110     1.1570 hc         1 58C       0.047200
     37 H10          6.7260     1.3410     1.4610 hc         1 58C       0.047200
     38 H11          7.6470     1.9560    -0.6990 h1         1 58C       0.030700
     39 H12          6.4970     0.3030    -2.2320 hc         1 58C       0.047200
     40 H13          6.8650    -0.3390    -0.6390 hc         1 58C       0.047200
     41 H14          4.5750    -1.0170    -1.3080 hc         1 58C       0.061200
     42 H15          4.1060     0.6520    -1.5920 hc         1 58C       0.061200
     43 H16         -3.1570     2.6060     1.4870 ha         1 58C       0.112000
     44 H17         -1.3900     1.3210     0.7500 hn         1 58C       0.508000
     45 H18         -5.5700     3.2280     1.2290 ha         1 58C       0.117000
     46 H19         -3.7990    -0.8760    -1.0310 ha         1 58C       0.161000
     47 H20         -7.9510     2.3050    -0.0390 hn         1 58C       0.356000
     48 H22          6.2190     3.6720    -1.1590 ho         1 58C       0.440000
     49 H5          -8.5970     0.3310    -1.5480 h5         1 58C       0.059800
@<TRIPOS>BOND
     1     1     2 ar  
     2     1     3 ar  
     3     1     7 ar  
     4     2    12 ar  
     5     2    13 ar  
     6     3    10 ar  
     7     3    29 1   
     8     4    10 ar  
     9     4    12 ar  
    10     4    21 1   
    11     5     6 ar  
    12     5     7 ar  
    13     5    30 1   
    14     6    13 ar  
    15     6    31 1   
    16     7    32 1   
    17     8    24 ar  
    18     8    25 ar  
    19     8    27 1   
    20     9    26 1   
    21     9    27 2   
    22     9    49 1   
    23    11    13 1   
    24    11    15 1   
    25    14    15 1   
    26    14    16 1   
    27    14    33 1   
    28    14    34 1   
    29    15    19 1   
    30    15    35 1   
    31    16    17 1   
    32    16    36 1   
    33    16    37 1   
    34    17    18 1   
    35    17    28 1   
    36    17    38 1   
    37    18    19 1   
    38    18    39 1   
    39    18    40 1   
    40    19    41 1   
    41    19    42 1   
    42    20    22 ar  
    43    20    23 ar  
    44    20    43 1   
    45    21    22 1   
    46    21    44 1   
    47    22    25 ar  
    48    23    24 ar  
    49    23    45 1   
    50    24    26 1   
    51    25    46 1   
    52    26    47 1   
    53    28    48 1   
@<TRIPOS>SUBSTRUCTURE
     1 58C         1 TEMP              0 ****  ****    0 ROOT
