@<TRIPOS>MOLECULE
58D
   41    43     1     0     0
SMALL
bcc


@<TRIPOS>ATOM
      1 C4          -1.1430     0.1710    -1.4600 c          1 58D       0.725100
      2 C7          -0.6340    -1.5350     0.2650 c3         1 58D       0.037700
      3 C8          -0.0330    -0.6230     1.3520 c3         1 58D      -0.034100
      4 C10          2.4360    -1.0440     1.1220 ca         1 58D      -0.083500
      5 C13          2.8540     1.4430    -0.0020 ca         1 58D      -0.187500
      6 C15         -2.0240    -2.0440     0.6010 c          1 58D       0.705500
      7 C20         -3.9080     2.3760     0.9490 ca         1 58D      -0.080000
      8 C22          6.2660     0.1980    -0.0760 c3         1 58D       0.125700
      9 C12          3.9340     0.5730     0.1580 ca         1 58D       0.145100
     10 C11          3.7180    -0.6800     0.7260 ca         1 58D      -0.187500
     11 C14          1.5870     1.0610     0.4000 ca         1 58D      -0.083500
     12 C9           1.3530    -0.1890     0.9690 ca         1 58D      -0.127300
     13 O16         -2.2210    -3.1980     0.9270 o          1 58D      -0.610500
     14 N17         -3.0420    -1.1510     0.5160 ns         1 58D      -0.470100
     15 C18         -2.9740     0.2320     0.3410 ca         1 58D       0.101600
     16 C19         -3.8970     1.0000     1.0540 ca         1 58D      -0.185000
     17 C1          -2.9890     3.0180     0.1270 ca         1 58D      -0.158000
     18 C2          -2.0970     2.2610    -0.6070 ca         1 58D      -0.060000
     19 C3          -2.0720     0.8660    -0.5210 ca         1 58D      -0.174600
     20 O5          -0.9050     0.6830    -2.5470 o          1 58D      -0.631500
     21 N6          -0.5950    -1.0040    -1.0890 n          1 58D      -0.460800
     22 C23          0.2730    -1.6980    -2.0260 c3         1 58D       0.085300
     23 H1          -0.0120    -2.4280     0.2470 h1         1 58D       0.087700
     24 H2          -0.6570     0.2480     1.5480 hc         1 58D       0.062700
     25 H3          -0.0110    -1.2050     2.2760 hc         1 58D       0.062700
     26 H4           2.2880    -2.0240     1.5610 ha         1 58D       0.131000
     27 H5           3.0170     2.4210    -0.4390 ha         1 58D       0.142000
     28 H6          -4.6280     2.9500     1.5170 ha         1 58D       0.137000
     29 H7           6.4290    -0.0500     0.9770 h1         1 58D       0.041033
     30 H8           6.1890    -0.7300    -0.6480 h1         1 58D       0.041033
     31 H9           7.1210     0.7620    -0.4390 h1         1 58D       0.041033
     32 H10          4.5270    -1.3830     0.8710 ha         1 58D       0.142000
     33 H11          0.7680     1.7600     0.2760 ha         1 58D       0.131000
     34 H12         -3.9360    -1.5060     0.8320 hn         1 58D       0.323500
     35 H13         -4.6060     0.5030     1.7040 ha         1 58D       0.137000
     36 H14         -2.9790     4.0960     0.0470 ha         1 58D       0.141000
     37 H15         -1.4000     2.7540    -1.2710 ha         1 58D       0.155000
     38 H16         -0.0080    -1.4700    -3.0490 h1         1 58D       0.049033
     39 H17          1.3190    -1.4200    -1.8780 h1         1 58D       0.049033
     40 H18          0.1770    -2.7710    -1.8760 h1         1 58D       0.049033
     41 O21          5.1340     1.0250    -0.2550 os         1 58D      -0.316900
@<TRIPOS>BOND
     1     1    19 1   
     2     1    20 2   
     3     1    21 1   
     4     2     3 1   
     5     2     6 1   
     6     2    21 1   
     7     2    23 1   
     8     3    12 1   
     9     3    24 1   
    10     3    25 1   
    11     4    10 ar  
    12     4    12 ar  
    13     4    26 1   
    14     5     9 ar  
    15     5    11 ar  
    16     5    27 1   
    17     6    13 2   
    18     6    14 1   
    19     7    16 ar  
    20     7    17 ar  
    21     7    28 1   
    22     8    29 1   
    23     8    30 1   
    24     8    31 1   
    25     8    41 1   
    26     9    10 ar  
    27     9    41 1   
    28    10    32 1   
    29    11    12 ar  
    30    11    33 1   
    31    14    15 1   
    32    14    34 1   
    33    15    16 ar  
    34    15    19 ar  
    35    16    35 1   
    36    17    18 ar  
    37    17    36 1   
    38    18    19 ar  
    39    18    37 1   
    40    21    22 1   
    41    22    38 1   
    42    22    39 1   
    43    22    40 1   
@<TRIPOS>SUBSTRUCTURE
     1 58D         1 TEMP              0 ****  ****    0 ROOT
