@<TRIPOS>MOLECULE
58D
   41    43     1     0     0
SMALL
No Charge or Current Charge


@<TRIPOS>ATOM
      1 C4          -1.2550     0.2800    -1.4690 c          1 58D       0.582600
      2 C7          -0.6390    -1.4760     0.2970 c3         1 58D       0.037700
      3 C8           0.0600    -0.6040     1.3730 c3         1 58D      -0.034100
      4 C10          2.5250    -1.1590     1.0860 ca         1 58D      -0.065500
      5 C13          3.0650     1.4120     0.1000 ca         1 58D      -0.169500
      6 C15         -2.0270    -1.9750     0.7410 c          1 58D       0.563000
      7 C20         -4.2570     2.3540     0.8970 ca         1 58D      -0.062000
      8 C22          6.5050    -0.0090    -0.1210 c3         1 58D       0.148900
      9 C12          4.1070     0.4780     0.2060 ca         1 58D       0.145100
     10 C11          3.8330    -0.8150     0.7030 ca         1 58D      -0.169500
     11 C14          1.7580     1.0690     0.4830 ca         1 58D      -0.065500
     12 C9           1.4820    -0.2200     0.9790 ca         1 58D      -0.127300
     13 O16         -2.1960    -3.1130     1.1640 o          1 58D      -0.535000
     14 N17         -3.0970    -1.1340     0.5510 ns         1 58D      -0.144000
     15 C18         -3.1310     0.2570     0.3340 ca         1 58D       0.009000
     16 C19         -4.1170     0.9680     1.0460 ca         1 58D      -0.167000
     17 C1          -3.4170     3.0420     0.0150 ca         1 58D      -0.140000
     18 C2          -2.4470     2.3410    -0.7190 ca         1 58D      -0.042000
     19 C3          -2.2790     0.9430    -0.5700 ca         1 58D      -0.174600
     20 O5          -1.0280     0.7660    -2.5710 o          1 58D      -0.556000
     21 N6          -0.5690    -0.8920    -1.0740 n          1 58D      -0.393800
     22 C23          0.4130    -1.5000    -2.0090 c3         1 58D       0.085300
     23 H1          -0.0510    -2.4020     0.2730 h1         1 58D       0.087700
     24 H2          -0.5370     0.2970     1.5610 hc         1 58D       0.062700
     25 H3           0.0750    -1.1550     2.3220 hc         1 58D       0.062700
     26 H4           2.3220    -2.1590     1.4640 ha         1 58D       0.113000
     27 H5           3.2720     2.4080    -0.2840 ha         1 58D       0.124000
     28 H6          -5.0170     2.8920     1.4610 ha         1 58D       0.119000
     29 H7           6.6870    -0.3330     0.9120 h1         1 58D       0.041033
     30 H8           6.3460    -0.8960    -0.7460 h1         1 58D       0.041033
     31 H9           7.4060     0.5040    -0.4800 h1         1 58D       0.041033
     32 H10          4.6160    -1.5610     0.7970 ha         1 58D       0.124000
     33 H11          0.9600     1.8020     0.3880 ha         1 58D       0.113000
     34 H12         -3.9900    -1.5360     0.8040 hn         1 58D       0.157000
     35 H13         -4.7790     0.4410     1.7300 ha         1 58D       0.119000
     36 H14         -3.5230     4.1170    -0.1110 ha         1 58D       0.123000
     37 H15         -1.8170     2.8980    -1.4110 ha         1 58D       0.137000
     38 H16         -0.0350    -1.6050    -3.0060 h1         1 58D       0.049033
     39 H17          1.2980    -0.8550    -2.0800 h1         1 58D       0.049033
     40 H18          0.7260    -2.4940    -1.6680 h1         1 58D       0.049033
     41 O21          5.3700     0.8730    -0.1870 os         1 58D      -0.340100
@<TRIPOS>BOND
     1     1    19 1   
     2     1    20 2   
     3     1    21 1   
     4     2     3 1   
     5     2     6 1   
     6     2    21 1   
     7     2    23 1   
     8     3    12 1   
     9     3    24 1   
    10     3    25 1   
    11     4    10 ar  
    12     4    12 ar  
    13     4    26 1   
    14     5     9 ar  
    15     5    11 ar  
    16     5    27 1   
    17     6    13 2   
    18     6    14 1   
    19     7    16 ar  
    20     7    17 ar  
    21     7    28 1   
    22     8    29 1   
    23     8    30 1   
    24     8    31 1   
    25     8    41 1   
    26     9    10 ar  
    27     9    41 1   
    28    10    32 1   
    29    11    12 ar  
    30    11    33 1   
    31    14    15 1   
    32    14    34 1   
    33    15    16 ar  
    34    15    19 ar  
    35    16    35 1   
    36    17    18 ar  
    37    17    36 1   
    38    18    19 ar  
    39    18    37 1   
    40    21    22 1   
    41    22    38 1   
    42    22    39 1   
    43    22    40 1   
@<TRIPOS>SUBSTRUCTURE
     1 58D         1 TEMP              0 ****  ****    0 ROOT
