@<TRIPOS>MOLECULE
58F
   55    60     1     0     0
SMALL
bcc


@<TRIPOS>ATOM
      1 C           -7.0580     0.0170    -0.1040 ca         1 58F       0.066900
      2 C1          -4.3140    -0.4230    -0.1090 ca         1 58F      -0.098900
      3 C2          -6.1920     1.0950    -0.2140 ca         1 58F      -0.101000
      4 C3          -4.8250     0.8690    -0.2160 ca         1 58F      -0.104000
      5 C4          -6.5710    -1.2790     0.0050 ca         1 58F      -0.101000
      6 C5          -5.2030    -1.4920     0.0010 ca         1 58F      -0.104000
      7 C6          -2.8780    -0.6900    -0.1110 cc         1 58F       0.471400
      8 C7          -0.7110    -0.3150    -0.1300 ca         1 58F      -0.086200
      9 C8          -0.9980    -1.6920    -0.1000 ca         1 58F       0.082400
     10 C9           0.0520    -2.6100    -0.0870 ca         1 58F      -0.068000
     11 C10          1.3420    -2.1220    -0.1010 ca         1 58F      -0.144000
     12 C11          1.6180    -0.7380    -0.1280 ca         1 58F      -0.096900
     13 C12          0.5780     0.1860    -0.1440 ca         1 58F      -0.082000
     14 N1          -1.9360     0.2910    -0.1380 na         1 58F      -0.251300
     15 N2          -2.3500    -1.8890    -0.0890 nd         1 58F      -0.572100
     16 C13          2.9900    -0.2370    -0.1380 cc         1 58F       0.466400
     17 C14          5.1970    -0.2450    -0.1180 ca         1 58F      -0.046200
     18 C15          4.6840     1.0610    -0.1650 ca         1 58F       0.043400
     19 C16          5.5750     2.1280    -0.1910 ca         1 58F      -0.041000
     20 C17          6.9320     1.8610    -0.1640 ca         1 58F      -0.203000
     21 C18          7.4450     0.5420    -0.1320 ca         1 58F       0.172600
     22 N3           4.0890    -1.0470    -0.1030 na         1 58F      -0.263300
     23 N4           3.3120     1.0300    -0.1750 nd         1 58F      -0.573100
     24 C19          6.5520    -0.5330    -0.1120 ca         1 58F      -0.186000
     25 N5           8.8220     0.2930    -0.1460 nh         1 58F      -0.648000
     26 N6          11.6700    -0.0030     0.2820 n3         1 58F      -0.712600
     27 C20          9.3330    -0.6430     0.8510 c6         1 58F       0.160800
     28 C21         10.7390    -1.0970     0.4810 c6         1 58F       0.158300
     29 C22         11.1180     0.9230    -0.6880 c6         1 58F       0.158300
     30 C23          9.7140     1.4200    -0.3530 c6         1 58F       0.160800
     31 C24         12.0910     0.6280     1.5170 c3         1 58F       0.150100
     32 I           -9.1310     0.3490    -0.1010 i          1 58F      -0.165900
     33 H1          -6.5630     2.1070    -0.3010 ha         1 58F       0.149500
     34 H2          -4.1730     1.7280    -0.3080 ha         1 58F       0.145000
     35 H3          -7.2400    -2.1240     0.0930 ha         1 58F       0.149500
     36 H4          -4.8220    -2.5010     0.0870 ha         1 58F       0.145000
     37 H5          -0.1370    -3.6750    -0.0660 ha         1 58F       0.150000
     38 H6           2.1510    -2.8400    -0.0920 ha         1 58F       0.123000
     39 H7           0.7790     1.2490    -0.1650 ha         1 58F       0.164000
     40 H8          -2.0960     1.2860    -0.1450 hn         1 58F       0.311700
     41 H10          5.2210     3.1510    -0.2170 ha         1 58F       0.144000
     42 H11          7.6110     2.7010    -0.1530 ha         1 58F       0.131000
     43 H12          4.0970    -2.0530    -0.0710 hn         1 58F       0.305700
     44 H14          6.8990    -1.5580    -0.1120 ha         1 58F       0.138000
     45 H16          9.3290    -0.1840     1.8510 h1         1 58F       0.041450
     46 H17          8.6920    -1.5210     0.9050 h1         1 58F       0.041450
     47 H18         10.6870    -1.6790    -0.4460 h1         1 58F       0.059950
     48 H19         11.1220    -1.7620     1.2590 h1         1 58F       0.059950
     49 H20         11.7860     1.7810    -0.7900 h1         1 58F       0.059950
     50 H21         11.0820     0.4200    -1.6600 h1         1 58F       0.059950
     51 H22          9.3590     2.0130    -1.1980 h1         1 58F       0.041450
     52 H23          9.7420     2.0880     0.5210 h1         1 58F       0.041450
     53 H24         11.2920     1.1040     2.1000 h1         1 58F       0.031033
     54 H25         12.5640    -0.1160     2.1600 h1         1 58F       0.031033
     55 H26         12.8360     1.3950     1.2980 h1         1 58F       0.031033
@<TRIPOS>BOND
     1     1     3 ar  
     2     1     5 ar  
     3     1    32 1   
     4     2     4 ar  
     5     2     6 ar  
     6     2     7 1   
     7     3     4 ar  
     8     3    33 1   
     9     4    34 1   
    10     5     6 ar  
    11     5    35 1   
    12     6    36 1   
    13     7    14 1   
    14     7    15 2   
    15     8     9 ar  
    16     8    13 ar  
    17     8    14 1   
    18     9    10 ar  
    19     9    15 1   
    20    10    11 ar  
    21    10    37 1   
    22    11    12 ar  
    23    11    38 1   
    24    12    13 ar  
    25    12    16 1   
    26    13    39 1   
    27    14    40 1   
    28    16    22 1   
    29    16    23 2   
    30    17    18 ar  
    31    17    22 1   
    32    17    24 ar  
    33    18    19 ar  
    34    18    23 1   
    35    19    20 ar  
    36    19    41 1   
    37    20    21 ar  
    38    20    42 1   
    39    21    24 ar  
    40    21    25 1   
    41    22    43 1   
    42    24    44 1   
    43    25    27 1   
    44    25    30 1   
    45    26    28 1   
    46    26    29 1   
    47    26    31 1   
    48    27    28 1   
    49    27    45 1   
    50    27    46 1   
    51    28    47 1   
    52    28    48 1   
    53    29    30 1   
    54    29    49 1   
    55    29    50 1   
    56    30    51 1   
    57    30    52 1   
    58    31    53 1   
    59    31    54 1   
    60    31    55 1   
@<TRIPOS>SUBSTRUCTURE
     1 58F         1 TEMP              0 ****  ****    0 ROOT
