@<TRIPOS>MOLECULE
58F
   55    60     1     0     0
SMALL
No Charge or Current Charge


@<TRIPOS>ATOM
      1 C           -7.2250    -0.0020    -0.1820 ca         1 58F       0.204000
      2 C1          -4.4320    -0.4720    -0.1580 ca         1 58F      -0.098900
      3 C2          -6.3320     1.0780    -0.1430 ca         1 58F      -0.083000
      4 C3          -4.9440     0.8480    -0.1310 ca         1 58F      -0.086000
      5 C4          -6.7350    -1.3150    -0.2090 ca         1 58F      -0.083000
      6 C5          -5.3480    -1.5500    -0.1970 ca         1 58F      -0.086000
      7 C6          -2.9820    -0.7290    -0.1460 cc         1 58F       0.471400
      8 C7          -0.7960    -0.3530    -0.1090 ca         1 58F      -0.086200
      9 C8          -1.0450    -1.6910    -0.1460 ca         1 58F       0.082400
     10 C9           0.0120    -2.6100    -0.1570 ca         1 58F      -0.050000
     11 C10          1.3350    -2.1140    -0.1270 ca         1 58F      -0.126000
     12 C11          1.5940    -0.7130    -0.0880 ca         1 58F      -0.096900
     13 C12          0.4960     0.1840    -0.0780 ca         1 58F      -0.064000
     14 N1          -2.0070     0.2690    -0.1080 na         1 58F      -0.301600
     15 N2          -2.4110    -1.9530    -0.1710 nd         1 58F      -0.572100
     16 C13          2.9720    -0.1940    -0.0570 cc         1 58F       0.466400
     17 C14          5.1870    -0.1660    -0.0270 ca         1 58F      -0.046200
     18 C15          4.7000     1.1050    -0.0010 ca         1 58F       0.043400
     19 C16          5.5750     2.1990     0.0350 ca         1 58F      -0.023000
     20 C17          6.9650     1.9460     0.0440 ca         1 58F      -0.185000
     21 C18          7.4670     0.6180     0.0200 ca         1 58F       0.311000
     22 N3           4.1120    -0.9970    -0.0630 na         1 58F      -0.313600
     23 N4           3.3080     1.1150    -0.0190 nd         1 58F      -0.573100
     24 C19          6.5540    -0.4600    -0.0180 ca         1 58F      -0.168000
     25 N5           8.8600     0.3600     0.0290 nh         1 58F      -0.786400
     26 N6          11.8150    -0.1000     0.1950 n3         1 58F      -0.712600
     27 C20          9.4490    -0.5730     1.0450 c6         1 58F       0.160800
     28 C21         10.8350    -1.1550     0.6040 c6         1 58F       0.158300
     29 C22         11.2120     0.7280    -0.8960 c6         1 58F       0.158300
     30 C23          9.8380     1.3670    -0.4990 c6         1 58F       0.160800
     31 C24         12.3240     0.7040     1.3320 c3         1 58F       0.150100
     32 I           -9.3610     0.3570    -0.2000 i          1 58F      -0.303000
     33 H1          -6.7170     2.0940    -0.1220 ha         1 58F       0.131500
     34 H2          -4.2770     1.7060    -0.1010 ha         1 58F       0.127000
     35 H3          -7.4290    -2.1510    -0.2390 ha         1 58F       0.131500
     36 H4          -4.9890    -2.5770    -0.2190 ha         1 58F       0.127000
     37 H5          -0.1850    -3.6780    -0.1870 ha         1 58F       0.132000
     38 H6           2.1530    -2.8300    -0.1350 ha         1 58F       0.105000
     39 H7           0.6440     1.2620    -0.0490 ha         1 58F       0.146000
     40 H8          -2.1800     1.2640    -0.0850 hn         1 58F       0.362000
     41 H10          5.1910     3.2160     0.0570 ha         1 58F       0.126000
     42 H11          7.6470     2.7890     0.0830 ha         1 58F       0.113000
     43 H12          4.1230    -2.0060    -0.0890 hn         1 58F       0.356000
     44 H14          6.9020    -1.4880    -0.0530 ha         1 58F       0.120000
     45 H16          9.5730    -0.0430     2.0010 h1         1 58F       0.041450
     46 H17          8.7730    -1.4180     1.2380 h1         1 58F       0.041450
     47 H18         10.6610    -1.8420    -0.2370 h1         1 58F       0.059950
     48 H19         11.2430    -1.7660     1.4230 h1         1 58F       0.059950
     49 H20         11.9030     1.5280    -1.2020 h1         1 58F       0.059950
     50 H21         11.0490     0.1020    -1.7860 h1         1 58F       0.059950
     51 H22          9.4250     1.8630    -1.3890 h1         1 58F       0.041450
     52 H23         10.0120     2.1470     0.2560 h1         1 58F       0.041450
     53 H24         11.5170     1.2600     1.8260 h1         1 58F       0.031033
     54 H25         12.8000     0.0560     2.0790 h1         1 58F       0.031033
     55 H26         13.0740     1.4270     0.9860 h1         1 58F       0.031033
@<TRIPOS>BOND
     1     1     3 ar  
     2     1     5 ar  
     3     1    32 1   
     4     2     4 ar  
     5     2     6 ar  
     6     2     7 1   
     7     3     4 ar  
     8     3    33 1   
     9     4    34 1   
    10     5     6 ar  
    11     5    35 1   
    12     6    36 1   
    13     7    14 1   
    14     7    15 2   
    15     8     9 ar  
    16     8    13 ar  
    17     8    14 1   
    18     9    10 ar  
    19     9    15 1   
    20    10    11 ar  
    21    10    37 1   
    22    11    12 ar  
    23    11    38 1   
    24    12    13 ar  
    25    12    16 1   
    26    13    39 1   
    27    14    40 1   
    28    16    22 1   
    29    16    23 2   
    30    17    18 ar  
    31    17    22 1   
    32    17    24 ar  
    33    18    19 ar  
    34    18    23 1   
    35    19    20 ar  
    36    19    41 1   
    37    20    21 ar  
    38    20    42 1   
    39    21    24 ar  
    40    21    25 1   
    41    22    43 1   
    42    24    44 1   
    43    25    27 1   
    44    25    30 1   
    45    26    28 1   
    46    26    29 1   
    47    26    31 1   
    48    27    28 1   
    49    27    45 1   
    50    27    46 1   
    51    28    47 1   
    52    28    48 1   
    53    29    30 1   
    54    29    49 1   
    55    29    50 1   
    56    30    51 1   
    57    30    52 1   
    58    31    53 1   
    59    31    54 1   
    60    31    55 1   
@<TRIPOS>SUBSTRUCTURE
     1 58F         1 TEMP              0 ****  ****    0 ROOT
