@<TRIPOS>MOLECULE
58G
   40    42     1     0     0
SMALL
No Charge or Current Charge


@<TRIPOS>ATOM
      1 C17          6.6350     1.0010    -0.1880 ca         1 58G      -0.108000
      2 C16          5.6990     1.2480     0.8290 ca         1 58G      -0.108500
      3 C18          6.2970     0.1540    -1.2550 ca         1 58G      -0.108500
      4 C5          -3.7800    -0.9730     0.6450 ca         1 58G       0.022000
      5 C15          4.4280     0.6490     0.7780 ca         1 58G      -0.105000
      6 C19          5.0260    -0.4450    -1.3050 ca         1 58G      -0.105000
      7 C6          -2.4140    -0.7880     0.8890 ca         1 58G      -0.253000
      8 C21         -3.7350     1.1280    -0.5490 ca         1 58G       0.423900
      9 C4          -4.4610     0.0110    -0.0990 ca         1 58G      -0.279600
     10 C14          4.0750    -0.2080    -0.2910 ca         1 58G      -0.073300
     11 C7          -1.7930     0.3540     0.3750 ca         1 58G       0.643900
     12 C11          2.3630    -1.5990     0.9780 c5         1 58G      -0.074400
     13 C10          1.1130    -0.8450     1.5200 c5         1 58G      -0.104400
     14 C13          1.6130     0.2380    -0.5270 c5         1 58G      -0.084400
     15 C12          2.6960    -0.8800    -0.3820 c5         1 58G      -0.021400
     16 C9           0.4220    -0.4320     0.1980 c5         1 58G       0.235500
     17 N20         -2.4170     1.3030    -0.3120 nb         1 58G      -0.771000
     18 N1          -6.5400     0.8290    -1.1020 nt         1 58G      -0.609000
     19 N8          -0.4840     0.6830     0.5580 nu         1 58G      -0.929100
     20 O3          -6.5690    -1.0930    -0.0040 o          1 58G      -0.620100
     21 H1           7.6180     1.4640    -0.1490 ha         1 58G       0.113000
     22 H2           5.9560     1.9050     1.6560 ha         1 58G       0.113500
     23 H3           7.0200    -0.0400    -2.0450 ha         1 58G       0.113500
     24 H4          -4.2940    -1.8550     1.0270 ha         1 58G       0.139000
     25 H5           3.7170     0.8550     1.5740 ha         1 58G       0.110000
     26 H6           4.7800    -1.0980    -2.1390 ha         1 58G       0.110000
     27 H7          -1.8540    -1.5130     1.4700 ha         1 58G       0.126000
     28 H8          -4.2100     1.9230    -1.1210 h4         1 58G       0.005100
     29 H9           3.1900    -1.5950     1.6970 hc         1 58G       0.051200
     30 H10          2.1250    -2.6540     0.7950 hc         1 58G       0.051200
     31 H11          0.4820    -1.4840     2.1480 hc         1 58G       0.054700
     32 H12          1.4090     0.0190     2.1280 hc         1 58G       0.054700
     33 H13          1.9150     1.1780    -0.0470 hc         1 58G       0.055200
     34 H14          1.3920     0.4670    -1.5750 hc         1 58G       0.055200
     35 H15          2.6340    -1.5920    -1.2140 hc         1 58G       0.055700
     36 H16         -0.0210    -1.2660    -0.3700 h1         1 58G       0.059700
     37 H17         -6.0300     1.6330    -1.4330 hn         1 58G       0.312500
     38 H18         -7.5250     0.7330    -1.2990 hn         1 58G       0.312500
     39 H19         -0.3310     1.5880     0.1260 hn         1 58G       0.503000
     40 C2          -5.9220    -0.1350    -0.3890 c          1 58G       0.635700
@<TRIPOS>BOND
     1     1     2 ar  
     2     1     3 ar  
     3     1    21 1   
     4     2     5 ar  
     5     2    22 1   
     6     3     6 ar  
     7     3    23 1   
     8     4     7 ar  
     9     4     9 ar  
    10     4    24 1   
    11     5    10 ar  
    12     5    25 1   
    13     6    10 ar  
    14     6    26 1   
    15     7    11 ar  
    16     7    27 1   
    17     8     9 ar  
    18     8    17 ar  
    19     8    28 1   
    20     9    40 1   
    21    10    15 1   
    22    11    17 ar  
    23    11    19 1   
    24    12    13 1   
    25    12    15 1   
    26    12    29 1   
    27    12    30 1   
    28    13    16 1   
    29    13    31 1   
    30    13    32 1   
    31    14    15 1   
    32    14    16 1   
    33    14    33 1   
    34    14    34 1   
    35    15    35 1   
    36    16    19 1   
    37    16    36 1   
    38    18    37 1   
    39    18    38 1   
    40    18    40 1   
    41    19    39 1   
    42    20    40 2   
@<TRIPOS>SUBSTRUCTURE
     1 58G         1 TEMP              0 ****  ****    0 ROOT
