@<TRIPOS>MOLECULE
58G
   40    42     1     0     0
SMALL
bcc


@<TRIPOS>ATOM
      1 C17          6.8710     0.8240    -0.0540 ca         1 58G      -0.126000
      2 C16          5.8150     1.5840     0.4360 ca         1 58G      -0.126500
      3 C18          6.6220    -0.4440    -0.5600 ca         1 58G      -0.126500
      4 C5          -3.7680    -1.0680    -0.0310 ca         1 58G       0.004000
      5 C15          4.5240     1.0780     0.4200 ca         1 58G      -0.123000
      6 C19          5.3260    -0.9450    -0.5740 ca         1 58G      -0.123000
      7 C6          -2.4080    -0.9490    -0.1530 ca         1 58G      -0.336300
      8 C21         -3.9330     1.2920    -0.1070 ca         1 58G       0.489200
      9 C4          -4.5860     0.0680    -0.0060 ca         1 58G      -0.344900
     10 C14          4.2590    -0.1960    -0.0850 ca         1 58G      -0.073300
     11 C7          -1.8530     0.3440    -0.2580 ca         1 58G       0.709200
     12 C11          2.2210    -0.9090     1.2920 c5         1 58G      -0.074400
     13 C10          0.7380    -1.1380     0.9910 c5         1 58G      -0.104400
     14 C13          1.8310     0.0940    -0.8330 c5         1 58G      -0.084400
     15 C12          2.8630    -0.7560    -0.0920 c5         1 58G      -0.021400
     16 C9           0.4780    -0.4760    -0.3920 c5         1 58G       0.235500
     17 N20         -2.6270     1.4380    -0.2290 nb         1 58G      -0.771000
     18 N1          -6.8100     1.0040     0.1560 nt         1 58G      -0.676000
     19 N8          -0.5320     0.5550    -0.4000 nu         1 58G      -0.873900
     20 O3          -6.5480    -1.2260     0.2100 o          1 58G      -0.620100
     21 H1           7.8790     1.2180    -0.0390 ha         1 58G       0.131000
     22 H2           6.0000     2.5740     0.8330 ha         1 58G       0.131500
     23 H3           7.4360    -1.0460    -0.9430 ha         1 58G       0.131500
     24 H4          -4.2100    -2.0520     0.0530 ha         1 58G       0.157000
     25 H5           3.7140     1.6860     0.8080 ha         1 58G       0.128000
     26 H6           5.1400    -1.9360    -0.9720 ha         1 58G       0.128000
     27 H7          -1.7820    -1.8300    -0.1590 ha         1 58G       0.144000
     28 H8          -4.4840     2.2280    -0.0900 h4         1 58G       0.005100
     29 H9           2.3550     0.0120     1.8660 hc         1 58G       0.051200
     30 H10          2.6680    -1.7170     1.8720 hc         1 58G       0.051200
     31 H11          0.5200    -2.2050     0.9360 hc         1 58G       0.054700
     32 H12          0.0900    -0.7180     1.7620 hc         1 58G       0.054700
     33 H13          1.9190     1.1360    -0.5080 hc         1 58G       0.055200
     34 H14          1.9590     0.0790    -1.9160 hc         1 58G       0.055200
     35 H15          2.8960    -1.7440    -0.5630 hc         1 58G       0.055700
     36 H16          0.1810    -1.2520    -1.1040 h1         1 58G       0.059700
     37 H17         -6.4410     1.9330     0.0720 hn         1 58G       0.312500
     38 H18         -7.8110     0.9180     0.2220 hn         1 58G       0.312500
     39 H19         -0.2350     1.5180    -0.3900 hn         1 58G       0.447800
     40 C2          -6.0540    -0.1060     0.1280 c          1 58G       0.702700
@<TRIPOS>BOND
     1     1     2 ar  
     2     1     3 ar  
     3     1    21 1   
     4     2     5 ar  
     5     2    22 1   
     6     3     6 ar  
     7     3    23 1   
     8     4     7 ar  
     9     4     9 ar  
    10     4    24 1   
    11     5    10 ar  
    12     5    25 1   
    13     6    10 ar  
    14     6    26 1   
    15     7    11 ar  
    16     7    27 1   
    17     8     9 ar  
    18     8    17 ar  
    19     8    28 1   
    20     9    40 1   
    21    10    15 1   
    22    11    17 ar  
    23    11    19 1   
    24    12    13 1   
    25    12    15 1   
    26    12    29 1   
    27    12    30 1   
    28    13    16 1   
    29    13    31 1   
    30    13    32 1   
    31    14    15 1   
    32    14    16 1   
    33    14    33 1   
    34    14    34 1   
    35    15    35 1   
    36    16    19 1   
    37    16    36 1   
    38    18    37 1   
    39    18    38 1   
    40    18    40 1   
    41    19    39 1   
    42    20    40 2   
@<TRIPOS>SUBSTRUCTURE
     1 58G         1 TEMP              0 ****  ****    0 ROOT
