@<TRIPOS>MOLECULE
58H
   63    66     1     0     0
SMALL
No Charge or Current Charge


@<TRIPOS>ATOM
      1 C14          6.1090    -0.9160     2.2000 c1         1 58H      -0.157600
      2 C11          3.3540    -0.6720     0.8480 c6         1 58H      -0.072900
      3 Cl3         -4.2420     3.3500    -0.5060 cl         1 58H      -0.192000
      4 C01         -0.7710     3.7990    -3.2080 c3         1 58H       0.154900
      5 O02         -1.2120     2.6850    -2.4130 os         1 58H      -0.440100
      6 C04         -1.0630     0.4570    -1.5680 ce         1 58H      -0.298400
      7 C05         -0.4950    -0.7630    -1.3920 c2         1 58H       0.204800
      8 C06          0.8120    -1.3190    -1.9850 c3         1 58H       0.200000
      9 N07          2.0460    -0.8470    -1.2890 n3         1 58H      -0.718600
     10 C08          3.2810    -1.1980    -2.0380 c6         1 58H       0.166300
     11 C09          4.5390    -0.5740    -1.3870 c6         1 58H      -0.072900
     12 C10          4.6880    -1.0070     0.1070 c6         1 58H      -0.083700
     13 C12          2.1310    -1.2890     0.1300 c6         1 58H       0.166300
     14 C13          5.9700    -0.4190     0.8190 c3         1 58H       0.373200
     15 C15          6.1950    -1.3330     3.3350 c1         1 58H      -0.209500
     16 O16          5.9150     1.0020     0.8660 oh         1 58H      -0.637000
     17 C17          7.2110    -0.7910     0.1150 c1         1 58H      -0.157600
     18 C18          8.2210    -1.0800    -0.4880 c1         1 58H      -0.209500
     19 N19         -1.1710    -1.6380    -0.5450 nu         1 58H      -0.780200
     20 C20         -2.5150    -1.5010    -0.2060 ce         1 58H       0.553200
     21 C21         -3.2730    -2.7850     0.1280 ca         1 58H       0.302700
     22 C22         -4.6690    -2.7630     0.3540 ca         1 58H      -0.103000
     23 C23         -5.3470    -3.9560     0.6550 ca         1 58H      -0.078000
     24 C24         -4.6040    -5.1450     0.7200 ca         1 58H      -0.148000
     25 C25         -3.2210    -5.1010     0.4840 ca         1 58H       0.341900
     26 N26         -2.5600    -3.9560     0.1930 nb         1 58H      -0.694000
     27 N27         -3.1220    -0.3710    -0.3680 n2         1 58H      -0.619900
     28 C28         -2.3710     0.8120    -0.8320 c6         1 58H       0.258000
     29 C29         -2.1210     1.7570     0.3580 ca         1 58H      -0.088300
     30 C30         -2.9090     2.9160     0.5670 ca         1 58H       0.163000
     31 C32         -2.6490     3.7620     1.6580 ca         1 58H      -0.159000
     32 C33         -1.6100     3.4630     2.5480 ca         1 58H       0.179000
     33 C35         -0.8260     2.3180     2.3580 ca         1 58H      -0.157000
     34 C36         -1.0810     1.4670     1.2690 ca         1 58H      -0.068000
     35 O37          0.5080     1.3880    -3.1580 o          1 58H      -0.507000
     36 F34         -1.3650     4.2800     3.5950 f          1 58H      -0.177000
     37 H1           3.3770    -1.0430     1.8800 hc         1 58H       0.055950
     38 H2           3.2200     0.4170     0.9120 hc         1 58H       0.055950
     39 H3          -1.4430     4.6550    -3.0710 h1         1 58H       0.044700
     40 H4           0.2410     4.1110    -2.9170 h1         1 58H       0.044700
     41 H5          -0.7630     3.5400    -4.2750 h1         1 58H       0.044700
     42 H6           0.7790    -2.4170    -1.9660 h1         1 58H       0.059200
     43 H7           0.8520    -1.0500    -3.0480 h1         1 58H       0.059200
     44 H9           3.4030    -2.2900    -2.0820 h1         1 58H       0.036700
     45 H10          3.2110    -0.8380    -3.0750 h1         1 58H       0.036700
     46 H11          5.4180    -0.8740    -1.9720 hc         1 58H       0.055950
     47 H12          4.4720     0.5200    -1.4620 hc         1 58H       0.055950
     48 H13          4.8100    -2.1000     0.1230 hc         1 58H       0.062700
     49 H14          2.1990    -2.3860     0.1840 h1         1 58H       0.036700
     50 H15          1.2280    -0.9950     0.6830 h1         1 58H       0.036700
     51 H16          6.2790    -1.6920     4.3420 ha         1 58H       0.256500
     52 H17          6.1430     1.2980    -0.0390 ho         1 58H       0.455000
     53 H18          9.1190    -1.3430    -1.0110 ha         1 58H       0.256500
     54 H19         -5.2200    -1.8280     0.2970 ha         1 58H       0.157000
     55 H20         -6.4210    -3.9580     0.8330 ha         1 58H       0.127000
     56 H21         -5.0860    -6.0910     0.9490 ha         1 58H       0.128000
     57 H22         -2.6220    -6.0100     0.5280 h4         1 58H       0.022100
     58 H23         -3.2550     4.6500     1.8150 ha         1 58H       0.144000
     59 H24         -0.0230     2.0900     3.0550 ha         1 58H       0.136000
     60 H25         -0.4680     0.5790     1.1350 ha         1 58H       0.136000
     61 H8          -0.8470    -2.6030    -0.4730 hn         1 58H       0.526000
     62 H26         -3.0250     1.3080    -1.5620 h1         1 58H       0.099700
     63 C03         -0.4850     1.5220    -2.4580 c          1 58H       0.632300
@<TRIPOS>BOND
     1     1    14 1   
     2     1    15 3   
     3     2    12 1   
     4     2    13 1   
     5     2    37 1   
     6     2    38 1   
     7     3    30 1   
     8     4     5 1   
     9     4    39 1   
    10     4    40 1   
    11     4    41 1   
    12     5    63 1   
    13     6     7 2   
    14     6    28 1   
    15     6    63 1   
    16     7     8 1   
    17     7    19 1   
    18     8     9 1   
    19     8    42 1   
    20     8    43 1   
    21     9    10 1   
    22     9    13 1   
    23    10    11 1   
    24    10    44 1   
    25    10    45 1   
    26    11    12 1   
    27    11    46 1   
    28    11    47 1   
    29    12    14 1   
    30    12    48 1   
    31    13    49 1   
    32    13    50 1   
    33    14    16 1   
    34    14    17 1   
    35    15    51 1   
    36    16    52 1   
    37    17    18 3   
    38    18    53 1   
    39    19    20 1   
    40    19    61 1   
    41    20    21 1   
    42    20    27 2   
    43    21    22 ar  
    44    21    26 ar  
    45    22    23 ar  
    46    22    54 1   
    47    23    24 ar  
    48    23    55 1   
    49    24    25 ar  
    50    24    56 1   
    51    25    26 ar  
    52    25    57 1   
    53    27    28 1   
    54    28    29 1   
    55    28    62 1   
    56    29    30 ar  
    57    29    34 ar  
    58    30    31 ar  
    59    31    32 ar  
    60    31    58 1   
    61    32    33 ar  
    62    32    36 1   
    63    33    34 ar  
    64    33    59 1   
    65    34    60 1   
    66    35    63 2   
@<TRIPOS>SUBSTRUCTURE
     1 58H         1 TEMP              0 ****  ****    0 ROOT
