@<TRIPOS>MOLECULE
58H
   63    66     1     0     0
SMALL
abcg2


@<TRIPOS>ATOM
      1 C14          5.7140    -0.4400     2.2310 c1         1 58H      -0.157600
      2 C11          3.0950    -0.6540     0.8550 c6         1 58H      -0.072900
      3 CL3         -4.3230     2.4030     0.3810 cl         1 58H      -0.192000
      4 C01          0.0040     3.4080    -3.2680 c3         1 58H       0.154900
      5 O02         -0.6000     2.4050    -2.4580 os         1 58H      -0.440100
      6 C04         -0.9150     0.2390    -1.7370 ce         1 58H      -0.298400
      7 C05         -0.4960    -1.0270    -1.5010 c2         1 58H       0.204800
      8 C06          0.8070    -1.6360    -1.9490 c3         1 58H       0.200000
      9 N07          1.9160    -1.0070    -1.2640 n3         1 58H      -0.718600
     10 C08          3.1680    -1.1540    -1.9800 c6         1 58H       0.166300
     11 C09          4.2660    -0.3320    -1.3220 c6         1 58H      -0.072900
     12 C10          4.4390    -0.7430     0.1380 c6         1 58H      -0.083700
     13 C12          2.0410    -1.4580     0.1090 c6         1 58H       0.166300
     14 C13          5.5430     0.0720     0.8630 c3         1 58H       0.373200
     15 C15          5.8540    -0.8720     3.3410 c1         1 58H      -0.209500
     16 O16          5.2210     1.4360     0.9880 oh         1 58H      -0.637000
     17 C17          6.8290    -0.0980     0.1600 c1         1 58H      -0.157600
     18 C18          7.8720    -0.2240    -0.4220 c1         1 58H      -0.209500
     19 N19         -1.2820    -1.8370    -0.7330 nu         1 58H      -0.780200
     20 C20         -2.5840    -1.4900    -0.4710 ce         1 58H       0.553200
     21 C21         -3.4540    -2.5960    -0.0050 ca         1 58H       0.302700
     22 C22         -4.7670    -2.3530     0.3810 ca         1 58H      -0.103000
     23 C23         -5.5350    -3.4270     0.7920 ca         1 58H      -0.078000
     24 C24         -4.9680    -4.6940     0.8110 ca         1 58H      -0.148000
     25 C25         -3.6450    -4.8290     0.4190 ca         1 58H       0.341900
     26 N26         -2.9050    -3.8050     0.0190 nb         1 58H      -0.694000
     27 N27         -3.0530    -0.3240    -0.6360 n2         1 58H      -0.619900
     28 C28         -2.1290     0.7440    -0.9890 c6         1 58H       0.258000
     29 C29         -1.7640     1.4920     0.2880 ca         1 58H      -0.088300
     30 C30         -2.7070     2.2450     0.9850 ca         1 58H       0.163000
     31 C32         -2.4020     2.9110     2.1620 ca         1 58H      -0.159000
     32 C33         -1.1130     2.8150     2.6480 ca         1 58H       0.179000
     33 C35         -0.1360     2.0950     1.9940 ca         1 58H      -0.157000
     34 C36         -0.4790     1.4440     0.8180 ca         1 58H      -0.068000
     35 O37          0.6850     0.8540    -3.4110 o          1 58H      -0.507000
     36 F34         -0.8090     3.4540     3.7860 f          1 58H      -0.177000
     37 H1           3.1750    -1.0370     1.8740 hc         1 58H       0.055950
     38 H2           2.7740     0.3890     0.9230 hc         1 58H       0.055950
     39 H3          -0.4590     4.3460    -2.9750 h1         1 58H       0.044700
     40 H4           1.0790     3.4690    -3.0970 h1         1 58H       0.044700
     41 H5          -0.1770     3.2340    -4.3280 h1         1 58H       0.044700
     42 H6           0.7730    -2.7250    -1.7790 h1         1 58H       0.059200
     43 H7           0.9180    -1.4940    -3.0210 h1         1 58H       0.059200
     44 H9           3.4890    -2.2100    -2.0350 h1         1 58H       0.036700
     45 H10          3.0270    -0.8100    -3.0050 h1         1 58H       0.036700
     46 H11          5.1930    -0.4730    -1.8800 hc         1 58H       0.055950
     47 H12          3.9910     0.7250    -1.4010 hc         1 58H       0.055950
     48 H13          4.7710    -1.7880     0.1560 hc         1 58H       0.062700
     49 H14          2.2940    -2.5330     0.1590 h1         1 58H       0.036700
     50 H15          1.0840    -1.3430     0.6230 h1         1 58H       0.036700
     51 H16          5.9760    -1.2580     4.3280 ha         1 58H       0.256500
     52 H17          5.0860     1.8060     0.1070 ho         1 58H       0.455000
     53 H18          8.7990    -0.3360    -0.9370 ha         1 58H       0.256500
     54 H19         -5.1610    -1.3460     0.3570 ha         1 58H       0.157000
     55 H20         -6.5630    -3.2790     1.0960 ha         1 58H       0.127000
     56 H21         -5.5340    -5.5600     1.1250 ha         1 58H       0.128000
     57 H22         -3.1660    -5.8010     0.4240 h4         1 58H       0.022100
     58 H23         -3.1470     3.4940     2.6870 ha         1 58H       0.144000
     59 H24          0.8720     2.0440     2.3840 ha         1 58H       0.136000
     60 H25          0.2880     0.8950     0.2870 ha         1 58H       0.136000
     61 H8          -1.0300    -2.8090    -0.6070 hn         1 58H       0.526000
     62 H26         -2.6860     1.4380    -1.6230 h1         1 58H       0.099700
     63 C03         -0.1810     1.1480    -2.6180 c          1 58H       0.632300
@<TRIPOS>BOND
     1     1    14 1   
     2     1    15 3   
     3     2    12 1   
     4     2    13 1   
     5     2    37 1   
     6     2    38 1   
     7     3    30 1   
     8     4     5 1   
     9     4    39 1   
    10     4    40 1   
    11     4    41 1   
    12     5    63 1   
    13     6     7 2   
    14     6    28 1   
    15     6    63 1   
    16     7     8 1   
    17     7    19 1   
    18     8     9 1   
    19     8    42 1   
    20     8    43 1   
    21     9    10 1   
    22     9    13 1   
    23    10    11 1   
    24    10    44 1   
    25    10    45 1   
    26    11    12 1   
    27    11    46 1   
    28    11    47 1   
    29    12    14 1   
    30    12    48 1   
    31    13    49 1   
    32    13    50 1   
    33    14    16 1   
    34    14    17 1   
    35    15    51 1   
    36    16    52 1   
    37    17    18 3   
    38    18    53 1   
    39    19    20 1   
    40    19    61 1   
    41    20    21 1   
    42    20    27 2   
    43    21    22 ar  
    44    21    26 ar  
    45    22    23 ar  
    46    22    54 1   
    47    23    24 ar  
    48    23    55 1   
    49    24    25 ar  
    50    24    56 1   
    51    25    26 ar  
    52    25    57 1   
    53    27    28 1   
    54    28    29 1   
    55    28    62 1   
    56    29    30 ar  
    57    29    34 ar  
    58    30    31 ar  
    59    31    32 ar  
    60    31    58 1   
    61    32    33 ar  
    62    32    36 1   
    63    33    34 ar  
    64    33    59 1   
    65    34    60 1   
    66    35    63 2   
@<TRIPOS>SUBSTRUCTURE
     1 58H         1 TEMP              0 ****  ****    0 ROOT
