@<TRIPOS>MOLECULE
58I
   20    19     1     0     0
SMALL
No Charge or Current Charge


@<TRIPOS>ATOM
      1 N2           2.6400    -8.5890    28.3390 nz         1 58I      -0.981000
      2 C4           2.2860    -8.1130    26.9490 c3         1 58I       0.107600
      3 C3           0.8050    -8.3770    26.6180 c3         1 58I      -0.123400
      4 C2          -0.1940    -7.6050    27.5210 c3         1 58I      -0.123400
      5 C1          -1.6760    -7.8680    27.1900 c3         1 58I       0.107600
      6 N1          -2.0290    -7.3920    25.8000 nz         1 58I      -0.981000
      7 HN21         3.6440    -8.4820    28.5570 hn         1 58I       0.523833
      8 HN22         2.1480    -8.0820    29.0900 hn         1 58I       0.523833
      9 H3           2.4380    -9.5900    28.4940 hn         1 58I       0.523833
     10 H41          2.9140    -8.6370    26.2180 hx         1 58I       0.123950
     11 H42          2.4960    -7.0400    26.8620 hx         1 58I       0.123950
     12 H31          0.6450    -8.0930    25.5710 hc         1 58I       0.088200
     13 H32          0.6060    -9.4540    26.6830 hc         1 58I       0.088200
     14 H21         -0.0340    -7.8890    28.5680 hc         1 58I       0.088200
     15 H22          0.0050    -6.5270    27.4560 hc         1 58I       0.088200
     16 HN11        -2.3030    -7.3440    27.9210 hx         1 58I       0.123950
     17 H1          -1.8850    -8.9410    27.2770 hx         1 58I       0.123950
     18 H2          -3.0330    -7.4990    25.5820 hn         1 58I       0.523833
     19 HN12        -1.8270    -6.3920    25.6450 hn         1 58I       0.523833
     20 H14         -1.5380    -7.8990    25.0490 hn         1 58I       0.523833
@<TRIPOS>BOND
     1     1     2 1   
     2     1     7 1   
     3     1     8 1   
     4     1     9 1   
     5     2     3 1   
     6     2    10 1   
     7     2    11 1   
     8     3     4 1   
     9     3    12 1   
    10     3    13 1   
    11     4     5 1   
    12     4    14 1   
    13     4    15 1   
    14     5     6 1   
    15     5    16 1   
    16     5    17 1   
    17     6    18 1   
    18     6    19 1   
    19     6    20 1   
@<TRIPOS>SUBSTRUCTURE
     1 58I         1 TEMP              0 ****  ****    0 ROOT
