@<TRIPOS>MOLECULE
58I
   20    19     1     0     0
SMALL
bcc


@<TRIPOS>ATOM
      1 N2           2.6460    -8.6010    28.3260 nz         1 58I      -0.843600
      2 C4           2.2550    -8.1160    26.9710 c3         1 58I       0.135800
      3 C3           0.7990    -8.3970    26.6530 c3         1 58I      -0.123400
      4 C2          -0.1890    -7.5850    27.4860 c3         1 58I      -0.123400
      5 C1          -1.6440    -7.8670    27.1680 c3         1 58I       0.135800
      6 N1          -2.0350    -7.3800    25.8130 nz         1 58I      -0.843600
      7 HN21         3.6410    -8.4510    28.4970 hn         1 58I       0.468633
      8 HN22         2.1480    -8.1220    29.0780 hn         1 58I       0.468633
      9 H3           2.4720    -9.6010    28.4370 hn         1 58I       0.468633
     10 H41          2.9080    -8.6260    26.2670 hx         1 58I       0.123950
     11 H42          2.4800    -7.0510    26.9420 hx         1 58I       0.123950
     12 H31          0.6860    -8.1670    25.5910 hc         1 58I       0.088200
     13 H32          0.5980    -9.4660    26.7590 hc         1 58I       0.088200
     14 H21         -0.0750    -7.8130    28.5490 hc         1 58I       0.088200
     15 H22          0.0120    -6.5150    27.3780 hc         1 58I       0.088200
     16 HN11        -2.2970    -7.3580    27.8730 hx         1 58I       0.123950
     17 H1          -1.8680    -8.9310    27.1950 hx         1 58I       0.123950
     18 H2          -3.0310    -7.5270    25.6430 hn         1 58I       0.468633
     19 HN12        -1.8590    -6.3810    25.7030 hn         1 58I       0.468633
     20 H14         -1.5400    -7.8600    25.0610 hn         1 58I       0.468633
@<TRIPOS>BOND
     1     1     2 1   
     2     1     7 1   
     3     1     8 1   
     4     1     9 1   
     5     2     3 1   
     6     2    10 1   
     7     2    11 1   
     8     3     4 1   
     9     3    12 1   
    10     3    13 1   
    11     4     5 1   
    12     4    14 1   
    13     4    15 1   
    14     5     6 1   
    15     5    16 1   
    16     5    17 1   
    17     6    18 1   
    18     6    19 1   
    19     6    20 1   
@<TRIPOS>SUBSTRUCTURE
     1 58I         1 TEMP              0 ****  ****    0 ROOT
