@<TRIPOS>MOLECULE
58J
   39    41     1     0     0
SMALL
abcg2


@<TRIPOS>ATOM
      1 C4           1.5630     0.5990    -1.4750 c          1 58J       0.589600
      2 C7           0.6510    -1.2560    -0.1910 cc         1 58J      -0.065600
      3 C8          -0.4820    -1.3590     0.5140 cf         1 58J      -0.082200
      4 C10         -2.8510    -1.1750     1.0620 ca         1 58J      -0.045500
      5 C13         -3.1680     1.1540    -0.3810 ca         1 58J      -0.181500
      6 C15          1.8300    -2.0820     0.1920 c          1 58J       0.570200
      7 C20          4.2310     1.7560     1.6490 ca         1 58J      -0.064000
      8 C22         -6.5800     0.7280     0.7930 c3         1 58J       0.146900
      9 O16          1.7650    -3.2700     0.4400 o          1 58J      -0.529000
     10 N17          3.0100    -1.3990     0.2320 ns         1 58J      -0.397100
     11 C18          3.1330    -0.0180     0.4340 ca         1 58J       0.096600
     12 C3           2.4170     0.9310    -0.3020 ca         1 58J      -0.165600
     13 C19          4.0510     0.4110     1.3940 ca         1 58J      -0.164000
     14 C1           3.4940     2.7050     0.9480 ca         1 58J      -0.137000
     15 C2           2.6100     2.2870    -0.0280 ca         1 58J      -0.040000
     16 N6           0.7930    -0.5120    -1.3870 n          1 58J      -0.332000
     17 C23          0.0530    -0.9930    -2.5460 c3         1 58J       0.088300
     18 O5           1.5670     1.3140    -2.4650 o          1 58J      -0.551000
     19 C9          -1.7470    -0.6520     0.3860 ca         1 58J      -0.116800
     20 C14         -1.9360     0.5380    -0.3320 ca         1 58J      -0.045500
     21 C12         -4.2690     0.5990     0.2820 ca         1 58J       0.160100
     22 O21         -5.4280     1.2600     0.1640 os         1 58J      -0.336100
     23 C11         -4.0990    -0.5760     1.0120 ca         1 58J      -0.181500
     24 H1          -0.4570    -2.0840     1.3210 ha         1 58J       0.192000
     25 H2          -2.7370    -2.0800     1.6460 ha         1 58J       0.120000
     26 H3          -3.2900     2.0750    -0.9360 ha         1 58J       0.126000
     27 H4           4.9410     2.0650     2.4040 ha         1 58J       0.118000
     28 H5          -7.4010     1.3950     0.5460 h1         1 58J       0.043367
     29 H6          -6.8140    -0.2740     0.4270 h1         1 58J       0.043367
     30 H7          -6.4690     0.6910     1.8800 h1         1 58J       0.043367
     31 H8           3.8010    -1.9520     0.5330 hn         1 58J       0.319500
     32 H9           4.6180    -0.3260     1.9500 ha         1 58J       0.118000
     33 H10          3.6200     3.7590     1.1530 ha         1 58J       0.123000
     34 H11          2.0580     3.0200    -0.6000 ha         1 58J       0.134000
     35 H12          0.4950    -0.6010    -3.4570 h1         1 58J       0.050700
     36 H13          0.1010    -2.0800    -2.5720 h1         1 58J       0.050700
     37 H14         -0.9940    -0.6930    -2.5100 h1         1 58J       0.050700
     38 H15         -1.1150     1.0140    -0.8480 ha         1 58J       0.120000
     39 H16         -4.9180    -1.0320     1.5500 ha         1 58J       0.126000
@<TRIPOS>BOND
     1     1    12 1   
     2     1    16 1   
     3     1    18 2   
     4     2     3 2   
     5     2     6 1   
     6     2    16 1   
     7     3    19 1   
     8     3    24 1   
     9     4    19 ar  
    10     4    23 ar  
    11     4    25 1   
    12     5    20 ar  
    13     5    21 ar  
    14     5    26 1   
    15     6     9 2   
    16     6    10 1   
    17     7    13 ar  
    18     7    14 ar  
    19     7    27 1   
    20     8    22 1   
    21     8    28 1   
    22     8    29 1   
    23     8    30 1   
    24    10    11 1   
    25    10    31 1   
    26    11    12 ar  
    27    11    13 ar  
    28    12    15 ar  
    29    13    32 1   
    30    14    15 ar  
    31    14    33 1   
    32    15    34 1   
    33    16    17 1   
    34    17    35 1   
    35    17    36 1   
    36    17    37 1   
    37    19    20 ar  
    38    20    38 1   
    39    21    22 1   
    40    21    23 ar  
    41    23    39 1   
@<TRIPOS>SUBSTRUCTURE
     1 58J         1 TEMP              0 ****  ****    0 ROOT
