@<TRIPOS>MOLECULE
58J
   39    41     1     0     0
SMALL
No Charge or Current Charge


@<TRIPOS>ATOM
      1 C4           1.6480     0.7140    -1.3350 c          1 58J       0.589600
      2 C7           0.5970    -1.1600    -0.0060 cc         1 58J      -0.065600
      3 C8          -0.6640    -1.4950     0.4430 cf         1 58J      -0.082200
      4 C10         -3.1350    -1.5100     0.7710 ca         1 58J      -0.045500
      5 C13         -3.3580     1.1540    -0.0680 ca         1 58J      -0.181500
      6 C15          1.7680    -1.8640     0.6100 c          1 58J       0.570200
      7 C20          4.9050     1.7710     1.3230 ca         1 58J      -0.064000
      8 C22         -6.9610     0.4790     0.6090 c3         1 58J       0.146900
      9 O16          1.6710    -2.9230     1.2160 o          1 58J      -0.529000
     10 N17          3.0020    -1.2820     0.5360 ns         1 58J      -0.397100
     11 C18          3.3670     0.0690     0.4720 ca         1 58J       0.096600
     12 C3           2.7230     1.0340    -0.3310 ca         1 58J      -0.165600
     13 C19          4.4560     0.4440     1.2820 ca         1 58J      -0.164000
     14 C1           4.2690     2.7370     0.5380 ca         1 58J      -0.137000
     15 C2           3.1970     2.3700    -0.2890 ca         1 58J      -0.040000
     16 N6           0.7560    -0.3780    -1.1710 n          1 58J      -0.332000
     17 C23         -0.1510    -0.6490    -2.3220 c3         1 58J       0.088300
     18 O5           1.5660     1.4130    -2.3410 o          1 58J      -0.551000
     19 C9          -1.9760    -0.8110     0.3770 ca         1 58J      -0.116800
     20 C14         -2.0980     0.5340    -0.0290 ca         1 58J      -0.045500
     21 C12         -4.5120     0.4500     0.3050 ca         1 58J       0.160100
     22 O21         -5.7210     1.1120     0.2460 os         1 58J      -0.336100
     23 C11         -4.3960    -0.8900     0.7310 ca         1 58J      -0.181500
     24 H1          -0.6680    -2.2870     1.1940 ha         1 58J       0.192000
     25 H2          -3.0620    -2.5450     1.1000 ha         1 58J       0.120000
     26 H3          -3.4400     2.1910    -0.3830 ha         1 58J       0.126000
     27 H4           5.7430     2.0470     1.9610 ha         1 58J       0.118000
     28 H5          -7.7950     1.1800     0.4870 h1         1 58J       0.043367
     29 H6          -7.1550    -0.3930    -0.0280 h1         1 58J       0.043367
     30 H7          -6.9410     0.1540     1.6570 h1         1 58J       0.043367
     31 H8           3.7320    -1.8820     0.8980 hn         1 58J       0.319500
     32 H9           4.9550    -0.2990     1.8990 ha         1 58J       0.118000
     33 H10          4.6130     3.7690     0.5580 ha         1 58J       0.123000
     34 H11          2.7330     3.1360    -0.9070 ha         1 58J       0.134000
     35 H12          0.4420    -0.7910    -3.2350 h1         1 58J       0.050700
     36 H13         -0.7370    -1.5610    -2.1540 h1         1 58J       0.050700
     37 H14         -0.8370     0.1940    -2.4730 h1         1 58J       0.050700
     38 H15         -1.2190     1.1150    -0.2950 ha         1 58J       0.120000
     39 H16         -5.2670    -1.4630     1.0330 ha         1 58J       0.126000
@<TRIPOS>BOND
     1     1    12 1   
     2     1    16 1   
     3     1    18 2   
     4     2     3 2   
     5     2     6 1   
     6     2    16 1   
     7     3    19 1   
     8     3    24 1   
     9     4    19 ar  
    10     4    23 ar  
    11     4    25 1   
    12     5    20 ar  
    13     5    21 ar  
    14     5    26 1   
    15     6     9 2   
    16     6    10 1   
    17     7    13 ar  
    18     7    14 ar  
    19     7    27 1   
    20     8    22 1   
    21     8    28 1   
    22     8    29 1   
    23     8    30 1   
    24    10    11 1   
    25    10    31 1   
    26    11    12 ar  
    27    11    13 ar  
    28    12    15 ar  
    29    13    32 1   
    30    14    15 ar  
    31    14    33 1   
    32    15    34 1   
    33    16    17 1   
    34    17    35 1   
    35    17    36 1   
    36    17    37 1   
    37    19    20 ar  
    38    20    38 1   
    39    21    22 1   
    40    21    23 ar  
    41    23    39 1   
@<TRIPOS>SUBSTRUCTURE
     1 58J         1 TEMP              0 ****  ****    0 ROOT
