@<TRIPOS>MOLECULE
58K
   37    39     1     0     0
SMALL
No Charge or Current Charge


@<TRIPOS>ATOM
      1 C4          -0.6950     0.2530    -1.4860 c          1 58K       0.584600
      2 C7           0.1640    -1.4200     0.2590 c3         1 58K       0.038700
      3 C8           0.8020    -0.4750     1.3090 c3         1 58K      -0.041100
      4 C10          3.3020    -0.7740     0.9490 ca         1 58K      -0.102500
      5 C13          3.5440     1.8370    -0.0590 ca         1 58K      -0.108000
      6 C15         -1.1470    -2.0630     0.7500 c          1 58K       0.562000
      7 C20         -3.8200     2.0040     0.9820 ca         1 58K      -0.062000
      8 C12          4.6760     1.0090     0.0210 ca         1 58K      -0.106000
      9 C11          4.5550    -0.2970     0.5260 ca         1 58K      -0.108000
     10 C14          2.2910     1.3600     0.3640 ca         1 58K      -0.102500
     11 C9           2.1640     0.0520     0.8710 ca         1 58K      -0.088300
     12 O16         -1.1790    -3.2110     1.1780 o          1 58K      -0.534000
     13 N17         -2.3070    -1.3420     0.5960 ns         1 58K      -0.144000
     14 C18         -2.4970     0.0370     0.3810 ca         1 58K       0.008000
     15 C19         -3.5270     0.6420     1.1260 ca         1 58K      -0.166000
     16 C1          -3.0890     2.7740     0.0710 ca         1 58K      -0.140000
     17 C2          -2.0750     2.1780    -0.6950 ca         1 58K      -0.042000
     18 C3          -1.7540     0.8060    -0.5520 ca         1 58K      -0.174600
     19 O5          -0.5590     0.7560    -2.5950 o          1 58K      -0.556000
     20 N6           0.1250    -0.8380    -1.1140 n          1 58K      -0.394800
     21 C23          1.1330    -1.3410    -2.0820 c3         1 58K       0.083300
     22 H1           0.8460    -2.2780     0.2150 h1         1 58K       0.088700
     23 H2           0.1220     0.3610     1.5140 hc         1 58K       0.064700
     24 H3           0.9040    -1.0150     2.2590 hc         1 58K       0.064700
     25 H5           3.6360     2.8470    -0.4520 ha         1 58K       0.115000
     26 H6          -4.6130     2.4600     1.5710 ha         1 58K       0.119000
     27 H7           5.6450     1.3780    -0.3070 ha         1 58K       0.114000
     28 H8           5.4300    -0.9400     0.5870 ha         1 58K       0.115000
     29 H9           1.4190     2.0060     0.2920 ha         1 58K       0.112500
     30 H10         -3.1420    -1.8360     0.8810 hn         1 58K       0.158000
     31 H11         -4.1060     0.0500     1.8320 ha         1 58K       0.119000
     32 H12         -3.3130     3.8310    -0.0520 ha         1 58K       0.123000
     33 H13         -1.5320     2.7960    -1.4080 ha         1 58K       0.137000
     34 H14          0.6660    -1.4960    -3.0630 h1         1 58K       0.050033
     35 H15          1.9430    -0.6060    -2.1820 h1         1 58K       0.050033
     36 H16          1.5620    -2.2950    -1.7520 h1         1 58K       0.050033
     37 H4           3.2160    -1.7880     1.3350 ha         1 58K       0.112500
@<TRIPOS>BOND
     1     1    18 1   
     2     1    19 2   
     3     1    20 1   
     4     2     3 1   
     5     2     6 1   
     6     2    20 1   
     7     2    22 1   
     8     3    11 1   
     9     3    23 1   
    10     3    24 1   
    11     4     9 ar  
    12     4    11 ar  
    13     4    37 1   
    14     5     8 ar  
    15     5    10 ar  
    16     5    25 1   
    17     6    12 2   
    18     6    13 1   
    19     7    15 ar  
    20     7    16 ar  
    21     7    26 1   
    22     8     9 ar  
    23     8    27 1   
    24     9    28 1   
    25    10    11 ar  
    26    10    29 1   
    27    13    14 1   
    28    13    30 1   
    29    14    15 ar  
    30    14    18 ar  
    31    15    31 1   
    32    16    17 ar  
    33    16    32 1   
    34    17    18 ar  
    35    17    33 1   
    36    20    21 1   
    37    21    34 1   
    38    21    35 1   
    39    21    36 1   
@<TRIPOS>SUBSTRUCTURE
     1 58K         1 TEMP              0 ****  ****    0 ROOT
