@<TRIPOS>MOLECULE
58K
   37    39     1     0     0
SMALL
abcg2


@<TRIPOS>ATOM
      1 C4          -0.6230     0.1700    -1.4960 c          1 58K       0.584600
      2 C7           0.1800    -1.4370     0.2140 c3         1 58K       0.038700
      3 C8           0.6800    -0.4480     1.2850 c3         1 58K      -0.041100
      4 C10          3.1800    -0.5950     1.0630 ca         1 58K      -0.102500
      5 C13          3.2970     1.8860    -0.1670 ca         1 58K      -0.108000
      6 C15         -1.1190    -2.1300     0.5920 c          1 58K       0.562000
      7 C20         -3.5360     2.0080     1.0450 ca         1 58K      -0.062000
      8 C12          4.4610     1.1530     0.0170 ca         1 58K      -0.106000
      9 C11          4.4000    -0.0890     0.6360 ca         1 58K      -0.108000
     10 C14          2.0790     1.3770     0.2640 ca         1 58K      -0.102500
     11 C9           2.0050     0.1310     0.8790 ca         1 58K      -0.088300
     12 O16         -1.1470    -3.3020     0.9130 o          1 58K      -0.534000
     13 N17         -2.2490    -1.3820     0.5490 ns         1 58K      -0.144000
     14 C18         -2.3680    -0.0010     0.3820 ca         1 58K       0.008000
     15 C19         -3.3450     0.6440     1.1430 ca         1 58K      -0.166000
     16 C1          -2.7490     2.7590     0.1800 ca         1 58K      -0.140000
     17 C2          -1.8040     2.1210    -0.6000 ca         1 58K      -0.042000
     18 C3          -1.5960     0.7410    -0.5190 ca         1 58K      -0.174600
     19 O5          -0.5110     0.6950    -2.5960 o          1 58K      -0.556000
     20 N6           0.1070    -0.9070    -1.1380 n          1 58K      -0.394800
     21 C23          1.0320    -1.4900    -2.0960 c3         1 58K       0.083300
     22 H1           0.9150    -2.2400     0.1770 h1         1 58K       0.088700
     23 H2          -0.0400     0.3500     1.4650 hc         1 58K       0.064700
     24 H3           0.7730    -1.0060     2.2190 hc         1 58K       0.064700
     25 H5           3.3360     2.8580    -0.6430 ha         1 58K       0.115000
     26 H6          -4.2930     2.4860     1.6510 ha         1 58K       0.119000
     27 H7           5.4120     1.5490    -0.3150 ha         1 58K       0.114000
     28 H8           5.3050    -0.6640     0.7900 ha         1 58K       0.115000
     29 H9           1.1770     1.9620     0.1280 ha         1 58K       0.112500
     30 H10         -3.0770    -1.8530     0.8910 hn         1 58K       0.158000
     31 H11         -3.9500     0.0610     1.8270 ha         1 58K       0.119000
     32 H12         -2.8820     3.8290     0.1040 ha         1 58K       0.123000
     33 H13         -1.2110     2.6980    -1.2960 ha         1 58K       0.137000
     34 H14          0.7510    -1.2200    -3.1080 h1         1 58K       0.050033
     35 H15          2.0520    -1.1490    -1.9110 h1         1 58K       0.050033
     36 H16          1.0090    -2.5750    -2.0070 h1         1 58K       0.050033
     37 H4           3.1410    -1.5650     1.5460 ha         1 58K       0.112500
@<TRIPOS>BOND
     1     1    18 1   
     2     1    19 2   
     3     1    20 1   
     4     2     3 1   
     5     2     6 1   
     6     2    20 1   
     7     2    22 1   
     8     3    11 1   
     9     3    23 1   
    10     3    24 1   
    11     4     9 ar  
    12     4    11 ar  
    13     4    37 1   
    14     5     8 ar  
    15     5    10 ar  
    16     5    25 1   
    17     6    12 2   
    18     6    13 1   
    19     7    15 ar  
    20     7    16 ar  
    21     7    26 1   
    22     8     9 ar  
    23     8    27 1   
    24     9    28 1   
    25    10    11 ar  
    26    10    29 1   
    27    13    14 1   
    28    13    30 1   
    29    14    15 ar  
    30    14    18 ar  
    31    15    31 1   
    32    16    17 ar  
    33    16    32 1   
    34    17    18 ar  
    35    17    33 1   
    36    20    21 1   
    37    21    34 1   
    38    21    35 1   
    39    21    36 1   
@<TRIPOS>SUBSTRUCTURE
     1 58K         1 TEMP              0 ****  ****    0 ROOT
