@<TRIPOS>MOLECULE
58L
   34    36     1     0     0
SMALL
abcg2


@<TRIPOS>ATOM
      1 C4         -25.4290   -20.2980    -3.3960 c          1 58L       0.581600
      2 C7         -24.9290   -22.6000    -4.2140 c3         1 58L       0.051700
      3 C8         -25.0030   -24.0000    -3.6080 c3         1 58L      -0.032100
      4 C10        -25.1060   -24.1920    -1.0930 ca         1 58L      -0.105000
      5 C13        -22.3430   -24.0350    -0.8870 ca         1 58L      -0.105000
      6 C15        -25.5530   -22.5420    -5.6060 c          1 58L       0.551000
      7 C20        -23.2280   -18.4050    -6.5470 ca         1 58L      -0.063000
      8 C12        -23.1160   -24.1510     0.2660 ca         1 58L      -0.105000
      9 C11        -24.5000   -24.2310     0.1600 ca         1 58L      -0.105000
     10 C14        -22.9530   -23.9960    -2.1350 ca         1 58L      -0.105000
     11 C9         -24.3420   -24.0720    -2.2540 ca         1 58L      -0.091300
     12 O16        -26.1410   -23.4760    -6.1300 o          1 58L      -0.534000
     13 N17        -25.4120   -21.3430    -6.2390 ns         1 58L      -0.152000
     14 C18        -24.6560   -20.2250    -5.8370 ca         1 58L       0.003000
     15 C19        -23.9710   -19.5340    -6.8420 ca         1 58L      -0.162000
     16 C1         -23.1560   -17.9380    -5.2350 ca         1 58L      -0.137000
     17 C2         -23.8570   -18.5980    -4.2420 ca         1 58L      -0.037000
     18 C3         -24.6150   -19.7410    -4.5180 ca         1 58L      -0.173600
     19 O5         -25.9240   -19.5580    -2.5420 o          1 58L      -0.558000
     20 N6         -25.6030   -21.6340    -3.3590 ns         1 58L      -0.499900
     21 H1         -23.8800   -22.3080    -4.3100 h1         1 58L       0.074700
     22 H2         -26.0490   -24.3010    -3.5340 hc         1 58L       0.072200
     23 H3         -24.5180   -24.6850    -4.3040 hc         1 58L       0.072200
     24 H5         -21.2640   -23.9770    -0.8130 ha         1 58L       0.115000
     25 H6         -22.6990   -17.8920    -7.3400 ha         1 58L       0.120000
     26 H7         -22.6410   -24.1820     1.2390 ha         1 58L       0.115000
     27 H8         -25.1100   -24.3250     1.0500 ha         1 58L       0.115000
     28 H9         -22.3450   -23.9070    -3.0280 ha         1 58L       0.110000
     29 H10        -25.7320   -21.3390    -7.1990 hn         1 58L       0.159000
     30 H11        -24.0280   -19.9020    -7.8590 ha         1 58L       0.120000
     31 H12        -22.5670   -17.0630    -4.9960 ha         1 58L       0.124000
     32 H13        -23.8390   -18.2330    -3.2250 ha         1 58L       0.138000
     33 H14        -26.2070   -21.9830    -2.6270 hn         1 58L       0.331500
     34 H4         -26.1850   -24.2560    -1.1720 ha         1 58L       0.110000
@<TRIPOS>BOND
     1     1    18 1   
     2     1    19 2   
     3     1    20 1   
     4     2     3 1   
     5     2     6 1   
     6     2    20 1   
     7     2    21 1   
     8     3    11 1   
     9     3    22 1   
    10     3    23 1   
    11     4     9 ar  
    12     4    11 ar  
    13     4    34 1   
    14     5     8 ar  
    15     5    10 ar  
    16     5    24 1   
    17     6    12 2   
    18     6    13 1   
    19     7    15 ar  
    20     7    16 ar  
    21     7    25 1   
    22     8     9 ar  
    23     8    26 1   
    24     9    27 1   
    25    10    11 ar  
    26    10    28 1   
    27    13    14 1   
    28    13    29 1   
    29    14    15 ar  
    30    14    18 ar  
    31    15    30 1   
    32    16    17 ar  
    33    16    31 1   
    34    17    18 ar  
    35    17    32 1   
    36    20    33 1   
@<TRIPOS>SUBSTRUCTURE
     1 58L         1 TEMP              0 ****  ****    0 ROOT
