@<TRIPOS>MOLECULE
58L
   34    36     1     0     0
SMALL
No Charge or Current Charge


@<TRIPOS>ATOM
      1 C4         -25.2510   -20.2800    -3.3540 c          1 58L       0.581600
      2 C7         -24.9280   -22.6320    -4.2070 c3         1 58L       0.051700
      3 C8         -25.0050   -24.0520    -3.5900 c3         1 58L      -0.032100
      4 C10        -25.1650   -24.3410    -1.0630 ca         1 58L      -0.105000
      5 C13        -22.3840   -24.0490    -0.7840 ca         1 58L      -0.105000
      6 C15        -25.5730   -22.5240    -5.6040 c          1 58L       0.551000
      7 C20        -23.2840   -18.2960    -6.6890 ca         1 58L      -0.063000
      8 C12        -23.1850   -24.2580     0.3520 ca         1 58L      -0.105000
      9 C11        -24.5750   -24.4040     0.2120 ca         1 58L      -0.105000
     10 C14        -22.9740   -23.9860    -2.0580 ca         1 58L      -0.105000
     11 C9         -24.3680   -24.1290    -2.2060 ca         1 58L      -0.091300
     12 O16        -26.2420   -23.4190    -6.1110 o          1 58L      -0.534000
     13 N17        -25.3400   -21.3420    -6.2720 ns         1 58L      -0.152000
     14 C18        -24.6220   -20.1830    -5.8870 ca         1 58L       0.003000
     15 C19        -23.9960   -19.4780    -6.9340 ca         1 58L      -0.162000
     16 C1         -23.2060   -17.7930    -5.3860 ca         1 58L      -0.137000
     17 C2         -23.8420   -18.4690    -4.3340 ca         1 58L      -0.037000
     18 C3         -24.5510   -19.6740    -4.5560 ca         1 58L      -0.173600
     19 O5         -25.6190   -19.5910    -2.4160 o          1 58L      -0.558000
     20 N6         -25.5190   -21.6230    -3.3210 ns         1 58L      -0.499900
     21 H1         -23.8660   -22.3830    -4.3360 h1         1 58L       0.074700
     22 H2         -26.0550   -24.3670    -3.5430 hc         1 58L       0.072200
     23 H3         -24.5060   -24.7610    -4.2640 hc         1 58L       0.072200
     24 H5         -21.3080   -23.9370    -0.6770 ha         1 58L       0.115000
     25 H6         -22.8000   -17.7690    -7.5090 ha         1 58L       0.120000
     26 H7         -22.7290   -24.3070     1.3380 ha         1 58L       0.115000
     27 H8         -25.1960   -24.5660     1.0900 ha         1 58L       0.115000
     28 H9         -22.3450   -23.8250    -2.9310 ha         1 58L       0.110000
     29 H10        -25.7190   -21.3080    -7.2100 hn         1 58L       0.159000
     30 H11        -24.0580   -19.8540    -7.9530 ha         1 58L       0.120000
     31 H12        -22.6610   -16.8720    -5.1900 ha         1 58L       0.124000
     32 H13        -23.7780   -18.0490    -3.3320 ha         1 58L       0.138000
     33 H14        -26.0080   -21.9440    -2.4940 hn         1 58L       0.331500
     34 H4         -26.2430   -24.4550    -1.1580 ha         1 58L       0.110000
@<TRIPOS>BOND
     1     1    18 1   
     2     1    19 2   
     3     1    20 1   
     4     2     3 1   
     5     2     6 1   
     6     2    20 1   
     7     2    21 1   
     8     3    11 1   
     9     3    22 1   
    10     3    23 1   
    11     4     9 ar  
    12     4    11 ar  
    13     4    34 1   
    14     5     8 ar  
    15     5    10 ar  
    16     5    24 1   
    17     6    12 2   
    18     6    13 1   
    19     7    15 ar  
    20     7    16 ar  
    21     7    25 1   
    22     8     9 ar  
    23     8    26 1   
    24     9    27 1   
    25    10    11 ar  
    26    10    28 1   
    27    13    14 1   
    28    13    29 1   
    29    14    15 ar  
    30    14    18 ar  
    31    15    30 1   
    32    16    17 ar  
    33    16    31 1   
    34    17    18 ar  
    35    17    32 1   
    36    20    33 1   
@<TRIPOS>SUBSTRUCTURE
     1 58L         1 TEMP              0 ****  ****    0 ROOT
