@<TRIPOS>MOLECULE
58N
   44    46     1     0     0
SMALL
abcg2


@<TRIPOS>ATOM
      1 CAT         -4.9350    -0.3860     1.7250 c3         1 58N      -0.100767
      2 CAS         -4.6800    -0.1700     0.2340 c3         1 58N       0.119000
      3 CAU         -5.3660    -1.2580    -0.5870 c3         1 58N      -0.100767
      4 CAV         -5.2030     1.1950    -0.2020 c3         1 58N      -0.100767
      5 NAQ         -3.2270    -0.2330    -0.0060 na         1 58N       0.134800
      6 CAR         -2.3470     0.7800    -0.0180 cc         1 58N      -0.160000
      7 NAP         -2.6180    -1.4150    -0.0720 nc         1 58N      -0.539800
      8 CAO         -1.3290    -1.1550    -0.1400 cd         1 58N       0.282900
      9 CAN         -1.0770     0.2340    -0.1150 cd         1 58N      -0.162000
     10 CAJ          0.1700     0.9960    -0.1910 ca         1 58N       0.071000
     11 CAE          1.4150     0.4460     0.1430 ca         1 58N       0.200000
     12 NAD          1.5200    -0.8940     0.5920 nu         1 58N      -0.895200
     13 CAC          2.1630    -1.8210    -0.3380 c3         1 58N       0.189500
     14 CAH          2.4930    -3.1030     0.4070 c3         1 58N      -0.100100
     15 CAB          3.4050    -1.2200    -1.0310 c3         1 58N      -0.197400
     16 CAA          4.3060    -0.4900    -0.0690 c          1 58N       0.569000
     17 OAI          5.4010    -0.9020     0.2760 o          1 58N      -0.548000
     18 NAG          3.8150     0.6880     0.4030 ns         1 58N      -0.171000
     19 CAF          2.5670     1.2460     0.0790 ca         1 58N      -0.062000
     20 CAM          2.4880     2.5880    -0.2640 ca         1 58N      -0.142000
     21 CAL          1.2540     3.1340    -0.5780 ca         1 58N      -0.088000
     22 CAK          0.1180     2.3450    -0.5600 ca         1 58N      -0.132000
     23 H1          -6.0070    -0.3820     1.9260 hc         1 58N       0.049033
     24 H2          -4.5340    -1.3450     2.0550 hc         1 58N       0.049033
     25 H3          -4.4780     0.4040     2.3220 hc         1 58N       0.049033
     26 H4          -5.1640    -1.1390    -1.6520 hc         1 58N       0.049033
     27 H5          -5.0530    -2.2550    -0.2840 hc         1 58N       0.049033
     28 H6          -6.4440    -1.1850    -0.4400 hc         1 58N       0.049033
     29 H7          -4.7720     2.0150     0.3720 hc         1 58N       0.049033
     30 H8          -5.0160     1.3730    -1.2620 hc         1 58N       0.049033
     31 H9          -6.2810     1.2280    -0.0430 hc         1 58N       0.049033
     32 H10         -2.6540     1.8080     0.0580 h4         1 58N       0.150000
     33 H11         -0.6240    -1.9650    -0.2170 h4         1 58N       0.047100
     34 H12          2.0240    -0.9090     1.4730 hn         1 58N       0.431000
     35 H13          1.4490    -2.0570    -1.1330 h1         1 58N       0.067700
     36 H14          1.5930    -3.5420     0.8380 hc         1 58N       0.046367
     37 H15          2.9400    -3.8350    -0.2660 hc         1 58N       0.046367
     38 H16          3.2010    -2.9210     1.2180 hc         1 58N       0.046367
     39 H17          3.9740    -2.0120    -1.5180 hc         1 58N       0.075700
     40 H18          3.0830    -0.5290    -1.8150 hc         1 58N       0.075700
     41 H19          4.4380     1.2360     0.9800 hn         1 58N       0.158000
     42 H20          3.3850     3.1930    -0.3020 ha         1 58N       0.119000
     43 H21          1.1810     4.1770    -0.8580 ha         1 58N       0.116000
     44 H22         -0.8290     2.7880    -0.8390 ha         1 58N       0.113000
@<TRIPOS>BOND
     1     1     2 1   
     2     1    23 1   
     3     1    24 1   
     4     1    25 1   
     5     2     3 1   
     6     2     4 1   
     7     2     5 1   
     8     3    26 1   
     9     3    27 1   
    10     3    28 1   
    11     4    29 1   
    12     4    30 1   
    13     4    31 1   
    14     5     6 1   
    15     5     7 1   
    16     6     9 2   
    17     6    32 1   
    18     7     8 2   
    19     8     9 1   
    20     8    33 1   
    21     9    10 1   
    22    10    11 ar  
    23    10    22 ar  
    24    11    12 1   
    25    11    19 ar  
    26    12    13 1   
    27    12    34 1   
    28    13    14 1   
    29    13    15 1   
    30    13    35 1   
    31    14    36 1   
    32    14    37 1   
    33    14    38 1   
    34    15    16 1   
    35    15    39 1   
    36    15    40 1   
    37    16    17 2   
    38    16    18 1   
    39    18    19 1   
    40    18    41 1   
    41    19    20 ar  
    42    20    21 ar  
    43    20    42 1   
    44    21    22 ar  
    45    21    43 1   
    46    22    44 1   
@<TRIPOS>SUBSTRUCTURE
     1 58N         1 TEMP              0 ****  ****    0 ROOT
