@<TRIPOS>MOLECULE
58N
   44    46     1     0     0
SMALL
No Charge or Current Charge


@<TRIPOS>ATOM
      1 CAT         -5.1350    -0.9430     1.5620 c3         1 58N      -0.100767
      2 CAS         -4.7110    -0.1720     0.2810 c3         1 58N       0.119000
      3 CAU         -5.3860    -0.8240    -0.9560 c3         1 58N      -0.100767
      4 CAV         -5.2300     1.2880     0.4030 c3         1 58N      -0.100767
      5 NAQ         -3.2200    -0.2190     0.1290 na         1 58N       0.134800
      6 CAR         -2.3420     0.8650     0.0470 cc         1 58N      -0.160000
      7 NAP         -2.5720    -1.4350     0.0310 nc         1 58N      -0.539800
      8 CAO         -1.3060    -1.0940    -0.0940 cd         1 58N       0.282900
      9 CAN         -1.0920     0.3070    -0.0560 cd         1 58N      -0.162000
     10 CAJ          0.1820     1.0580    -0.2400 ca         1 58N       0.071000
     11 CAE          1.4760     0.4760    -0.0600 ca         1 58N       0.200000
     12 NAD          1.6200    -0.8320     0.4600 nu         1 58N      -0.895200
     13 CAC          2.3190    -1.9640    -0.1680 c3         1 58N       0.189500
     14 CAH          2.7080    -2.9860     0.9190 c3         1 58N      -0.100100
     15 CAB          3.5150    -1.4690    -0.9910 c3         1 58N      -0.197400
     16 CAA          4.3880    -0.5360    -0.1570 c          1 58N       0.569000
     17 OAI          5.4270    -0.9060     0.3780 o          1 58N      -0.548000
     18 NAG          3.9540     0.7720    -0.0960 ns         1 58N      -0.171000
     19 CAF          2.6380     1.2750    -0.2790 ca         1 58N      -0.062000
     20 CAM          2.5130     2.6240    -0.6440 ca         1 58N      -0.142000
     21 CAL          1.2480     3.1950    -0.8110 ca         1 58N      -0.088000
     22 CAK          0.0980     2.4210    -0.6110 ca         1 58N      -0.132000
     23 H1          -6.2210    -0.8960     1.7080 hc         1 58N       0.049033
     24 H2          -4.8530    -2.0010     1.5010 hc         1 58N       0.049033
     25 H3          -4.6540    -0.5140     2.4490 hc         1 58N       0.049033
     26 H4          -5.0890    -0.3080    -1.8770 hc         1 58N       0.049033
     27 H5          -5.1030    -1.8790    -1.0530 hc         1 58N       0.049033
     28 H6          -6.4790    -0.7770    -0.8780 hc         1 58N       0.049033
     29 H7          -4.7900     1.7910     1.2730 hc         1 58N       0.049033
     30 H8          -4.9860     1.8700    -0.4940 hc         1 58N       0.049033
     31 H9          -6.3200     1.3070     0.5240 hc         1 58N       0.049033
     32 H10         -2.6650     1.8960     0.0820 h4         1 58N       0.150000
     33 H11         -0.5840    -1.8860    -0.2330 h4         1 58N       0.047100
     34 H12          0.8590    -1.1040     1.0820 hn         1 58N       0.431000
     35 H13          1.6350    -2.4670    -0.8680 h1         1 58N       0.067700
     36 H14          1.8150    -3.3620     1.4320 hc         1 58N       0.046367
     37 H15          3.2250    -3.8440     0.4720 hc         1 58N       0.046367
     38 H16          3.3710    -2.5370     1.6680 hc         1 58N       0.046367
     39 H17          4.1010    -2.3210    -1.3510 hc         1 58N       0.075700
     40 H18          3.0960    -0.9140    -1.8380 hc         1 58N       0.075700
     41 H19          4.6090     1.4250     0.3150 hn         1 58N       0.158000
     42 H20          3.4000     3.2340    -0.7990 ha         1 58N       0.119000
     43 H21          1.1560     4.2410    -1.0980 ha         1 58N       0.116000
     44 H22         -0.8680     2.8930    -0.7630 ha         1 58N       0.113000
@<TRIPOS>BOND
     1     1     2 1   
     2     1    23 1   
     3     1    24 1   
     4     1    25 1   
     5     2     3 1   
     6     2     4 1   
     7     2     5 1   
     8     3    26 1   
     9     3    27 1   
    10     3    28 1   
    11     4    29 1   
    12     4    30 1   
    13     4    31 1   
    14     5     6 1   
    15     5     7 1   
    16     6     9 2   
    17     6    32 1   
    18     7     8 2   
    19     8     9 1   
    20     8    33 1   
    21     9    10 1   
    22    10    11 ar  
    23    10    22 ar  
    24    11    12 1   
    25    11    19 ar  
    26    12    13 1   
    27    12    34 1   
    28    13    14 1   
    29    13    15 1   
    30    13    35 1   
    31    14    36 1   
    32    14    37 1   
    33    14    38 1   
    34    15    16 1   
    35    15    39 1   
    36    15    40 1   
    37    16    17 2   
    38    16    18 1   
    39    18    19 1   
    40    18    41 1   
    41    19    20 ar  
    42    20    21 ar  
    43    20    42 1   
    44    21    22 ar  
    45    21    43 1   
    46    22    44 1   
@<TRIPOS>SUBSTRUCTURE
     1 58N         1 TEMP              0 ****  ****    0 ROOT
