@<TRIPOS>MOLECULE
58O
   58    62     1     0     0
SMALL
bcc


@<TRIPOS>ATOM
      1 C4          -5.2130    -1.5130    -0.4840 ca         1 58O       0.500600
      2 C5          -4.0670    -0.8010    -0.1490 ca         1 58O      -0.384400
      3 C6          -2.8470    -1.3600    -0.6130 ca         1 58O       0.762200
      4 N1          -2.8740    -2.4900    -1.3200 nb         1 58O      -0.810000
      5 N3          -5.2450    -2.6410    -1.1940 nb         1 58O      -0.716000
      6 FAC         -8.0320     2.0530     0.0450 f          1 58O      -0.234967
      7 CBI         -7.0310     2.6210     0.7350 c3         1 58O       0.663900
      8 FAD         -6.2060     3.1710    -0.1650 f          1 58O      -0.234967
      9 FAE         -7.5660     3.6230     1.4440 f          1 58O      -0.234967
     10 CAY         -5.6750     0.5290     0.8510 cc         1 58O      -0.112600
     11 SAW         -6.6300    -0.7450     0.1440 ss         1 58O      -0.075900
     12 CAJ         -4.3510     0.3700     0.6150 cd         1 58O      -0.065200
     13 C2          -4.0510    -3.0540    -1.5710 ca         1 58O       0.704900
     14 NAT         -1.6720    -0.7720    -0.3700 nu         1 58O      -0.855900
     15 CBG         -0.3820    -1.3420    -0.7120 c6         1 58O       0.234500
     16 CAM          0.6610    -0.2380    -0.8060 c6         1 58O      -0.092400
     17 CAO          2.0340    -0.8270    -1.0940 c6         1 58O       0.171800
     18 CAL          0.0710    -2.3910     0.3000 c6         1 58O      -0.092400
     19 CAN          1.4660    -2.8920    -0.0370 c6         1 58O       0.171800
     20 NBH          2.4130    -1.7960    -0.0870 n3         1 58O      -0.717600
     21 CAP          3.7720    -2.2730    -0.2620 c3         1 58O       0.233100
     22 CAZ          4.7970    -1.2020    -0.0030 ca         1 58O      -0.138300
     23 CAI          5.5370    -0.6790    -1.0330 ca         1 58O      -0.034000
     24 CBC          6.4770     0.3360    -0.7900 ca         1 58O      -0.155800
     25 CAH          7.3710     1.0710    -1.6090 cc         1 58O      -0.100200
     26 CAX          8.0270     1.9420    -0.7760 cd         1 58O       0.002200
     27 CAF          9.0180     2.8880    -1.1070 ch         1 58O       0.212500
     28 NAB          9.8300     3.6590    -1.3870 n1         1 58O      -0.351800
     29 NAU          7.5810     1.7770     0.5150 na         1 58O      -0.152400
     30 CBD          6.6370     0.8040     0.5280 ca         1 58O       0.012800
     31 CAK          5.9070     0.2870     1.6030 ca         1 58O      -0.266000
     32 CBA          4.9960    -0.7150     1.3260 ca         1 58O       0.199100
     33 OAV          4.2530    -1.3150     2.2670 os         1 58O      -0.296900
     34 CAA          4.3970    -0.9070     3.6110 c3         1 58O       0.121700
     35 H1          -5.5580     2.1630     2.1920 hc         1 58O       0.087200
     36 H2          -7.0420     1.2360     2.3450 hc         1 58O       0.087200
     37 H3          -3.6110     1.0680     0.9830 ha         1 58O       0.148000
     38 H4          -4.0200    -3.9680    -2.1530 h5         1 58O       0.047100
     39 H5          -1.6650     0.0290     0.2410 hn         1 58O       0.437800
     40 H6          -0.4780    -1.8180    -1.6920 h1         1 58O       0.082700
     41 H7           0.3990     0.4700    -1.5950 hc         1 58O       0.054700
     42 H8           0.6980     0.3180     0.1370 hc         1 58O       0.054700
     43 H9           2.0330    -1.2750    -2.1050 h1         1 58O       0.035700
     44 H10          2.7700    -0.0210    -1.1130 h1         1 58O       0.035700
     45 H11          0.0800    -1.9480     1.3000 hc         1 58O       0.054700
     46 H12         -0.6300    -3.2280     0.3150 hc         1 58O       0.054700
     47 H13          1.7900    -3.6040     0.7260 h1         1 58O       0.035700
     48 H14          1.4360    -3.4500    -0.9920 h1         1 58O       0.035700
     49 H16          3.9260    -3.1070     0.4270 h1         1 58O       0.039200
     50 H17          3.9370    -2.6760    -1.2760 h1         1 58O       0.039200
     51 H18          5.3880    -1.0510    -2.0410 ha         1 58O       0.137000
     52 H19          7.5220     0.9810    -2.6730 ha         1 58O       0.164000
     53 H20          7.9000     2.3040     1.3120 hn         1 58O       0.309700
     54 H21          6.0670     0.6660     2.6020 ha         1 58O       0.141000
     55 H22          3.7090    -1.5140     4.1940 h1         1 58O       0.041033
     56 H23          5.4130    -1.0690     3.9820 h1         1 58O       0.041033
     57 H24          4.1380     0.1470     3.7480 h1         1 58O       0.041033
     58 CAQ         -6.3220     1.6290     1.6230 c3         1 58O      -0.077200
@<TRIPOS>BOND
     1     1     2 ar  
     2     1     5 ar  
     3     1    11 1   
     4     2     3 ar  
     5     2    12 1   
     6     3     4 ar  
     7     3    14 1   
     8     4    13 ar  
     9     5    13 ar  
    10     6     7 1   
    11     7     8 1   
    12     7     9 1   
    13     7    58 1   
    14    10    11 1   
    15    10    12 2   
    16    10    58 1   
    17    12    37 1   
    18    13    38 1   
    19    14    15 1   
    20    14    39 1   
    21    15    16 1   
    22    15    18 1   
    23    15    40 1   
    24    16    17 1   
    25    16    41 1   
    26    16    42 1   
    27    17    20 1   
    28    17    43 1   
    29    17    44 1   
    30    18    19 1   
    31    18    45 1   
    32    18    46 1   
    33    19    20 1   
    34    19    47 1   
    35    19    48 1   
    36    20    21 1   
    37    21    22 1   
    38    21    49 1   
    39    21    50 1   
    40    22    23 ar  
    41    22    32 ar  
    42    23    24 ar  
    43    23    51 1   
    44    24    25 1   
    45    24    30 ar  
    46    25    26 2   
    47    25    52 1   
    48    26    27 1   
    49    26    29 1   
    50    27    28 3   
    51    29    30 1   
    52    29    53 1   
    53    30    31 ar  
    54    31    32 ar  
    55    31    54 1   
    56    32    33 1   
    57    33    34 1   
    58    34    55 1   
    59    34    56 1   
    60    34    57 1   
    61    35    58 1   
    62    36    58 1   
@<TRIPOS>SUBSTRUCTURE
     1 58O         1 TEMP              0 ****  ****    0 ROOT
