@<TRIPOS>MOLECULE
58O
   58    62     1     0     0
SMALL
No Charge or Current Charge


@<TRIPOS>ATOM
      1 C4          -5.3530    -1.6010    -0.6320 ca         1 58O       0.172300
      2 C5          -4.1920    -0.9160    -0.3460 ca         1 58O      -0.253800
      3 C6          -2.9810    -1.4080    -0.8520 ca         1 58O       0.433900
      4 N1          -2.9640    -2.5280    -1.6030 nb         1 58O      -0.284000
      5 N3          -5.3660    -2.7210    -1.3770 nb         1 58O      -0.190000
      6 FAC         -7.8600     2.3800    -0.0840 f          1 58O      -0.113667
      7 CBI         -6.8950     2.7440     0.7920 c3         1 58O       0.300000
      8 FAD         -5.8810     3.3010     0.0910 f          1 58O      -0.113667
      9 FAE         -7.4090     3.6960     1.6030 f          1 58O      -0.113667
     10 CAY         -5.7960     0.4320     0.7850 cc         1 58O      -0.112600
     11 SAW         -6.8120    -0.8610     0.0800 ss         1 58O      -0.075900
     12 CAJ         -4.4630     0.2490     0.4710 cd         1 58O      -0.115200
     13 C2          -4.1570    -3.1280    -1.8280 ca         1 58O       0.178900
     14 NAT         -1.7750    -0.7620    -0.5990 nu         1 58O      -0.911100
     15 CBG         -0.4320    -1.3220    -0.8390 c6         1 58O       0.234500
     16 CAM          0.6110    -0.1850    -0.8280 c6         1 58O      -0.092400
     17 CAO          2.0370    -0.7550    -0.9990 c6         1 58O       0.171800
     18 CAL         -0.0790    -2.3620     0.2470 c6         1 58O      -0.092400
     19 CAN          1.3620    -2.8810     0.0500 c6         1 58O       0.171800
     20 NBH          2.3500    -1.7680     0.0490 n3         1 58O      -0.717600
     21 CAP          3.7460    -2.2680    -0.0140 c3         1 58O       0.233100
     22 CAZ          4.8010    -1.1830     0.1860 ca         1 58O      -0.138300
     23 CAI          5.4270    -0.6120    -0.9460 ca         1 58O      -0.016000
     24 CBC          6.3910     0.3800    -0.7380 ca         1 58O      -0.155800
     25 CAH          7.1730     1.1270    -1.6760 cc         1 58O      -0.150200
     26 CAX          7.9780     1.9840    -0.9340 cd         1 58O       0.002200
     27 CAF          8.9280     2.9260    -1.4200 ch         1 58O       0.301700
     28 NAB          9.7140     3.7060    -1.7920 n1         1 58O      -0.441000
     29 NAU          7.7140     1.7870     0.4430 na         1 58O      -0.202700
     30 CBD          6.7420     0.8020     0.5100 ca         1 58O       0.012800
     31 CAK          6.1530     0.2570     1.6550 ca         1 58O      -0.248000
     32 CBA          5.1680    -0.7520     1.4910 ca         1 58O       0.199100
     33 OAV          4.5530    -1.3430     2.5800 os         1 58O      -0.320100
     34 CAA          4.8450    -0.9570     3.9340 c3         1 58O       0.144900
     35 H1          -5.6690     1.8880     2.3510 hc         1 58O       0.087200
     36 H2          -7.2450     1.1390     2.1940 hc         1 58O       0.087200
     37 H3          -3.6940     0.9360     0.8160 ha         1 58O       0.198000
     38 H4          -4.1430    -4.0320    -2.4330 h5         1 58O       0.047100
     39 H5          -1.8480     0.0740    -0.0250 hn         1 58O       0.493000
     40 H6          -0.3890    -1.8080    -1.8280 h1         1 58O       0.082700
     41 H7           0.4010     0.5280    -1.6360 hc         1 58O       0.054700
     42 H8           0.5560     0.3740     0.1150 hc         1 58O       0.054700
     43 H9           2.1300    -1.2020    -2.0010 h1         1 58O       0.035700
     44 H10          2.7460     0.0840    -0.9520 h1         1 58O       0.035700
     45 H11         -0.1730    -1.9140     1.2460 hc         1 58O       0.054700
     46 H12         -0.7800    -3.2060     0.2110 hc         1 58O       0.054700
     47 H13          1.5910    -3.5920     0.8570 h1         1 58O       0.035700
     48 H14          1.4170    -3.4390    -0.8970 h1         1 58O       0.035700
     49 H16          3.8990    -3.0400     0.7530 h1         1 58O       0.039200
     50 H17          3.9210    -2.7580    -0.9820 h1         1 58O       0.039200
     51 H18          5.1660    -0.9280    -1.9540 ha         1 58O       0.119000
     52 H19          7.1560     1.0550    -2.7610 ha         1 58O       0.214000
     53 H20          8.1500     2.2700     1.2210 hn         1 58O       0.360000
     54 H21          6.4580     0.6120     2.6340 ha         1 58O       0.123000
     55 H22          4.2410    -1.5470     4.6340 h1         1 58O       0.041033
     56 H23          5.9030    -1.1290     4.1690 h1         1 58O       0.041033
     57 H24          4.6140     0.1040     4.0950 h1         1 58O       0.041033
     58 CAQ         -6.4020     1.5350     1.6160 c3         1 58O      -0.077200
@<TRIPOS>BOND
     1     1     2 ar  
     2     1     5 ar  
     3     1    11 1   
     4     2     3 ar  
     5     2    12 1   
     6     3     4 ar  
     7     3    14 1   
     8     4    13 ar  
     9     5    13 ar  
    10     6     7 1   
    11     7     8 1   
    12     7     9 1   
    13     7    58 1   
    14    10    11 1   
    15    10    12 2   
    16    10    58 1   
    17    12    37 1   
    18    13    38 1   
    19    14    15 1   
    20    14    39 1   
    21    15    16 1   
    22    15    18 1   
    23    15    40 1   
    24    16    17 1   
    25    16    41 1   
    26    16    42 1   
    27    17    20 1   
    28    17    43 1   
    29    17    44 1   
    30    18    19 1   
    31    18    45 1   
    32    18    46 1   
    33    19    20 1   
    34    19    47 1   
    35    19    48 1   
    36    20    21 1   
    37    21    22 1   
    38    21    49 1   
    39    21    50 1   
    40    22    23 ar  
    41    22    32 ar  
    42    23    24 ar  
    43    23    51 1   
    44    24    25 1   
    45    24    30 ar  
    46    25    26 2   
    47    25    52 1   
    48    26    27 1   
    49    26    29 1   
    50    27    28 3   
    51    29    30 1   
    52    29    53 1   
    53    30    31 ar  
    54    31    32 ar  
    55    31    54 1   
    56    32    33 1   
    57    33    34 1   
    58    34    55 1   
    59    34    56 1   
    60    34    57 1   
    61    35    58 1   
    62    36    58 1   
@<TRIPOS>SUBSTRUCTURE
     1 58O         1 TEMP              0 ****  ****    0 ROOT
