@<TRIPOS>MOLECULE
58P
   65    69     1     0     0
SMALL
abcg2


@<TRIPOS>ATOM
      1 C4           6.4800     1.1830     0.1110 ca         1 58P       0.171300
      2 C5           5.2460     0.5490     0.1940 ca         1 58P      -0.254800
      3 C6           4.1150     1.4070     0.1240 ca         1 58P       0.435900
      4 N1           4.3010     2.7200    -0.0120 nb         1 58P      -0.285000
      5 N3           6.6680     2.4960    -0.0270 nb         1 58P      -0.190000
      6 FAE          8.6990    -2.5930    -1.2320 f          1 58P      -0.114000
      7 CBM          7.6470    -3.2720    -0.7500 c3         1 58P       0.300000
      8 FAF          6.7150    -3.2720    -1.7100 f          1 58P      -0.114000
      9 FAG          8.0430    -4.5400    -0.5850 f          1 58P      -0.114000
     10 CBB          6.6520    -1.2790     0.3780 cc         1 58P      -0.112600
     11 SAZ          7.7750     0.0420     0.2150 ss         1 58P      -0.072900
     12 CAN          5.3630    -0.8650     0.3470 cd         1 58P      -0.115200
     13 C2           5.5440     3.1830    -0.0760 ca         1 58P       0.179900
     14 NAY          2.8710     0.9290     0.2070 nu         1 58P      -0.914100
     15 CBI          1.6690     1.7330     0.1070 c6         1 58P       0.236500
     16 CAQ          1.2750     2.0200    -1.3390 c6         1 58P      -0.092900
     17 CAS         -0.0350     2.7910    -1.3900 c6         1 58P       0.170300
     18 CAP          0.5220     1.0330     0.8210 c6         1 58P      -0.092900
     19 CAR         -0.7630     1.8310     0.6800 c6         1 58P       0.170300
     20 NBJ         -1.0930     2.0660    -0.7130 n3         1 58P      -0.725600
     21 CAT         -2.3760     2.7250    -0.8560 c3         1 58P       0.219100
     22 CBA         -3.5200     1.8370    -0.4450 ca         1 58P      -0.117300
     23 CAL         -4.4520     2.2580     0.4760 ca         1 58P      -0.047000
     24 CAJ         -3.6410     0.5560    -1.0320 ca         1 58P      -0.058000
     25 CAK         -4.6720    -0.3000    -0.7250 ca         1 58P      -0.137000
     26 CBH         -5.6150     0.1400     0.2100 ca         1 58P      -0.027200
     27 CBE         -5.5210     1.4110     0.8120 ca         1 58P      -0.112800
     28 CAM         -6.6240     1.5330     1.6960 cc         1 58P      -0.166200
     29 CBC         -7.3270     0.3600     1.5920 cd         1 58P       0.032200
     30 CAH         -8.5080     0.0010     2.2790 ch         1 58P       0.310700
     31 NAA         -9.4680    -0.2800     2.8530 n1         1 58P      -0.453000
     32 NBK         -6.7140    -0.4960     0.7070 na         1 58P      -0.059700
     33 CAV         -7.2250    -1.7680     0.2540 c3         1 58P       0.038600
     34 CBL         -8.1480    -1.6130    -0.9560 c3         1 58P       0.146300
     35 OAD         -9.2190    -0.7460    -0.6730 oh         1 58P      -0.628000
     36 CAO         -8.5980    -2.9810    -1.4380 c3         1 58P       0.129600
     37 OAB         -9.3550    -2.8200    -2.6120 oh         1 58P      -0.641000
     38 H1           6.3130    -3.3020     0.8980 hc         1 58P       0.087200
     39 H2           7.9320    -2.7440     1.2860 hc         1 58P       0.087200
     40 H3           4.5330    -1.5520     0.4390 ha         1 58P       0.198000
     41 H4           5.6420     4.2570    -0.1850 h5         1 58P       0.047100
     42 H5           2.7500    -0.0720     0.2320 hn         1 58P       0.495000
     43 H6           1.8640     2.6850     0.6090 h1         1 58P       0.081700
     44 H7           2.0570     2.5960    -1.8370 hc         1 58P       0.054700
     45 H8           1.1670     1.0750    -1.8800 hc         1 58P       0.054700
     46 H9           0.1170     3.7940    -0.9520 h1         1 58P       0.037700
     47 H10         -0.3270     2.9480    -2.4310 h1         1 58P       0.037700
     48 H11          0.3740     0.0350     0.3940 hc         1 58P       0.054700
     49 H12          0.7560     0.9040     1.8800 hc         1 58P       0.054700
     50 H13         -1.5790     1.2800     1.1510 h1         1 58P       0.037700
     51 H14         -0.6670     2.7830     1.2330 h1         1 58P       0.037700
     52 H16         -2.4250     3.6690    -0.2870 h1         1 58P       0.039200
     53 H17         -2.4970     2.9940    -1.9100 h1         1 58P       0.039200
     54 H18         -4.3610     3.2330     0.9390 ha         1 58P       0.116000
     55 H19         -2.8880     0.2400    -1.7440 ha         1 58P       0.125000
     56 H20         -4.7420    -1.2740    -1.1920 ha         1 58P       0.115000
     57 H21         -6.8770     2.3650     2.3330 ha         1 58P       0.216000
     58 H22         -6.3780    -2.4100     0.0090 h1         1 58P       0.065700
     59 H23         -7.7490    -2.2530     1.0800 h1         1 58P       0.065700
     60 H24         -7.5810    -1.1320    -1.7590 h1         1 58P       0.097700
     61 H25         -9.8500    -1.1990    -0.1030 ho         1 58P       0.443000
     62 H26         -7.7070    -3.6000    -1.6090 h1         1 58P       0.021200
     63 H27         -9.1770    -3.4750    -0.6430 h1         1 58P       0.021200
     64 H28         -9.6160    -3.6930    -2.9200 ho         1 58P       0.447000
     65 CAU          7.1360    -2.6800     0.5410 c3         1 58P      -0.076200
@<TRIPOS>BOND
     1     1     2 ar  
     2     1     5 ar  
     3     1    11 1   
     4     2     3 ar  
     5     2    12 1   
     6     3     4 ar  
     7     3    14 1   
     8     4    13 ar  
     9     5    13 ar  
    10     6     7 1   
    11     7     8 1   
    12     7     9 1   
    13     7    65 1   
    14    10    11 1   
    15    10    12 2   
    16    10    65 1   
    17    12    40 1   
    18    13    41 1   
    19    14    15 1   
    20    14    42 1   
    21    15    16 1   
    22    15    18 1   
    23    15    43 1   
    24    16    17 1   
    25    16    44 1   
    26    16    45 1   
    27    17    20 1   
    28    17    46 1   
    29    17    47 1   
    30    18    19 1   
    31    18    48 1   
    32    18    49 1   
    33    19    20 1   
    34    19    50 1   
    35    19    51 1   
    36    20    21 1   
    37    21    22 1   
    38    21    52 1   
    39    21    53 1   
    40    22    23 ar  
    41    22    24 ar  
    42    23    27 ar  
    43    23    54 1   
    44    24    25 ar  
    45    24    55 1   
    46    25    26 ar  
    47    25    56 1   
    48    26    27 ar  
    49    26    32 1   
    50    27    28 1   
    51    28    29 2   
    52    28    57 1   
    53    29    30 1   
    54    29    32 1   
    55    30    31 3   
    56    32    33 1   
    57    33    34 1   
    58    33    58 1   
    59    33    59 1   
    60    34    35 1   
    61    34    36 1   
    62    34    60 1   
    63    35    61 1   
    64    36    37 1   
    65    36    62 1   
    66    36    63 1   
    67    37    64 1   
    68    38    65 1   
    69    39    65 1   
@<TRIPOS>SUBSTRUCTURE
     1 58P         1 TEMP              0 ****  ****    0 ROOT
