@<TRIPOS>MOLECULE
58P
   65    69     1     0     0
SMALL
No Charge or Current Charge


@<TRIPOS>ATOM
      1 C4           6.6090     1.2740     0.2040 ca         1 58P       0.171300
      2 C5           5.3570     0.7140     0.3410 ca         1 58P      -0.254800
      3 C6           4.2440     1.5650     0.3960 ca         1 58P       0.435900
      4 N1           4.4060     2.9010     0.3170 nb         1 58P      -0.285000
      5 N3           6.8010     2.6030     0.1220 nb         1 58P      -0.190000
      6 FAE          8.1910    -2.7140    -1.8010 f          1 58P      -0.114000
      7 CBM          7.2600    -3.3410    -1.0450 c3         1 58P       0.300000
      8 FAF          6.0820    -3.2970    -1.7080 f          1 58P      -0.114000
      9 FAG          7.6240    -4.6380    -0.9310 f          1 58P      -0.114000
     10 CBB          6.7180    -1.2380     0.3110 cc         1 58P      -0.112600
     11 SAZ          7.9260     0.0720     0.1490 ss         1 58P      -0.072900
     12 CAN          5.4370    -0.7310     0.4040 cd         1 58P      -0.115200
     13 C2           5.6760     3.3530     0.1830 ca         1 58P       0.179900
     14 NAY          2.9550     1.0620     0.5330 nu         1 58P      -0.914100
     15 CBI          1.7090     1.8210     0.3190 c6         1 58P       0.236500
     16 CAQ          1.4530     2.0210    -1.1920 c6         1 58P      -0.092900
     17 CAS          0.1010     2.7330    -1.4210 c6         1 58P       0.170300
     18 CAP          0.5250     1.0590     0.9510 c6         1 58P      -0.092900
     19 CAR         -0.8050     1.7950     0.6710 c6         1 58P       0.170300
     20 NBJ         -1.0230     1.9860    -0.7920 n3         1 58P      -0.725600
     21 CAT         -2.3380     2.5940    -1.1050 c3         1 58P       0.219100
     22 CBA         -3.5190     1.7460    -0.6450 ca         1 58P      -0.117300
     23 CAL         -4.3920     2.2230     0.3590 ca         1 58P      -0.047000
     24 CAJ         -3.7440     0.4710    -1.2230 ca         1 58P      -0.058000
     25 CAK         -4.8300    -0.3280    -0.8080 ca         1 58P      -0.137000
     26 CBH         -5.6800     0.1730     0.1920 ca         1 58P      -0.027200
     27 CBE         -5.4590     1.4040     0.7480 ca         1 58P      -0.112800
     28 CAM         -6.4850     1.6250     1.7240 cc         1 58P      -0.166200
     29 CBC         -7.3020     0.5000     1.7200 cd         1 58P       0.032200
     30 CAH         -8.4550     0.2670     2.5230 ch         1 58P       0.310700
     31 NAA         -9.3830     0.0810     3.2080 n1         1 58P      -0.453000
     32 NBK         -6.8030    -0.4180     0.7620 na         1 58P      -0.059700
     33 CAV         -7.3270    -1.7450     0.3790 c3         1 58P       0.038600
     34 CBL         -8.1960    -1.7190    -0.9010 c3         1 58P       0.146300
     35 OAD         -9.3980    -0.9660    -0.6700 oh         1 58P      -0.628000
     36 CAO         -8.5880    -3.1440    -1.3690 c3         1 58P       0.129600
     37 OAB         -9.4550    -3.0660    -2.5130 oh         1 58P      -0.641000
     38 H1           6.4220    -3.2640     0.9450 hc         1 58P       0.087200
     39 H2           8.1030    -2.7760     0.8620 hc         1 58P       0.087200
     40 H3           4.5710    -1.3780     0.5120 ha         1 58P       0.198000
     41 H4           5.8070     4.4320     0.1190 h5         1 58P       0.047100
     42 H5           2.8930     0.0480     0.5840 hn         1 58P       0.495000
     43 H6           1.7700     2.8080     0.8050 h1         1 58P       0.081700
     44 H7           2.2590     2.6140    -1.6410 hc         1 58P       0.054700
     45 H8           1.4470     1.0510    -1.7070 hc         1 58P       0.054700
     46 H9           0.1570     3.7520    -1.0110 h1         1 58P       0.037700
     47 H10         -0.0650     2.8290    -2.5040 h1         1 58P       0.037700
     48 H11          0.4670     0.0390     0.5460 hc         1 58P       0.054700
     49 H12          0.6720     0.9650     2.0350 hc         1 58P       0.054700
     50 H13         -1.6220     1.2060     1.1120 h1         1 58P       0.037700
     51 H14         -0.7940     2.7680     1.1850 h1         1 58P       0.037700
     52 H16         -2.4080     3.5910    -0.6490 h1         1 58P       0.039200
     53 H17         -2.4320     2.7350    -2.1900 h1         1 58P       0.039200
     54 H18         -4.2420     3.1960     0.8210 ha         1 58P       0.116000
     55 H19         -3.0680     0.1020    -1.9920 ha         1 58P       0.125000
     56 H20         -4.9950    -1.3050    -1.2550 ha         1 58P       0.115000
     57 H21         -6.6180     2.5000     2.3550 ha         1 58P       0.216000
     58 H22         -6.4760    -2.4190     0.2230 h1         1 58P       0.065700
     59 H23         -7.9140    -2.1550     1.2100 h1         1 58P       0.065700
     60 H24         -7.6060    -1.2560    -1.7060 h1         1 58P       0.097700
     61 H25        -10.0240    -1.2760    -1.3640 ho         1 58P       0.443000
     62 H26         -7.6770    -3.7020    -1.6210 h1         1 58P       0.021200
     63 H27         -9.0890    -3.6740    -0.5470 h1         1 58P       0.021200
     64 H28         -9.6350    -3.9890    -2.8040 ho         1 58P       0.447000
     65 CAU          7.1390    -2.6870     0.3480 c3         1 58P      -0.076200
@<TRIPOS>BOND
     1     1     2 ar  
     2     1     5 ar  
     3     1    11 1   
     4     2     3 ar  
     5     2    12 1   
     6     3     4 ar  
     7     3    14 1   
     8     4    13 ar  
     9     5    13 ar  
    10     6     7 1   
    11     7     8 1   
    12     7     9 1   
    13     7    65 1   
    14    10    11 1   
    15    10    12 2   
    16    10    65 1   
    17    12    40 1   
    18    13    41 1   
    19    14    15 1   
    20    14    42 1   
    21    15    16 1   
    22    15    18 1   
    23    15    43 1   
    24    16    17 1   
    25    16    44 1   
    26    16    45 1   
    27    17    20 1   
    28    17    46 1   
    29    17    47 1   
    30    18    19 1   
    31    18    48 1   
    32    18    49 1   
    33    19    20 1   
    34    19    50 1   
    35    19    51 1   
    36    20    21 1   
    37    21    22 1   
    38    21    52 1   
    39    21    53 1   
    40    22    23 ar  
    41    22    24 ar  
    42    23    27 ar  
    43    23    54 1   
    44    24    25 ar  
    45    24    55 1   
    46    25    26 ar  
    47    25    56 1   
    48    26    27 ar  
    49    26    32 1   
    50    27    28 1   
    51    28    29 2   
    52    28    57 1   
    53    29    30 1   
    54    29    32 1   
    55    30    31 3   
    56    32    33 1   
    57    33    34 1   
    58    33    58 1   
    59    33    59 1   
    60    34    35 1   
    61    34    36 1   
    62    34    60 1   
    63    35    61 1   
    64    36    37 1   
    65    36    62 1   
    66    36    63 1   
    67    37    64 1   
    68    38    65 1   
    69    39    65 1   
@<TRIPOS>SUBSTRUCTURE
     1 58P         1 TEMP              0 ****  ****    0 ROOT
