@<TRIPOS>MOLECULE
58Q
   71    76     1     0     0
SMALL
No Charge or Current Charge


@<TRIPOS>ATOM
      1 C4          -6.9570    -1.4550    -0.0670 ca         1 58Q       0.173300
      2 C5          -5.7400    -0.8240     0.0690 ca         1 58Q      -0.255800
      3 C6          -4.6240    -1.3710    -0.5800 ca         1 58Q       0.436900
      4 N1          -4.7510    -2.4900    -1.3220 nb         1 58Q      -0.285000
      5 N3          -7.1130    -2.5730    -0.7990 nb         1 58Q      -0.191000
      6 FAD         -9.1900     2.6370     0.7660 f          1 58Q      -0.113333
      7 CBP         -8.1100     2.9560     1.5150 c3         1 58Q       0.300000
      8 FAE         -7.1650     3.4650     0.6920 f          1 58Q      -0.113333
      9 FAF         -8.4760     3.9290     2.3790 f          1 58Q      -0.113333
     10 CBE         -7.1280     0.5950     1.3830 cc         1 58Q      -0.113600
     11 SBA         -8.2810    -0.6500     0.8160 ss         1 58Q      -0.076900
     12 CAL         -5.8540     0.3510     0.9080 cd         1 58Q      -0.114200
     13 C2          -5.9890    -3.0350    -1.3940 ca         1 58Q       0.178900
     14 NAX         -3.3680    -0.7820    -0.4820 nu         1 58Q      -0.914100
     15 CBM         -2.0920    -1.4050    -0.8790 c6         1 58Q       0.237500
     16 CAO         -1.0040    -0.3180    -1.0040 c6         1 58Q      -0.091900
     17 CAQ          0.3610    -0.9570    -1.3440 c6         1 58Q       0.169300
     18 CAN         -1.6590    -2.4590     0.1640 c6         1 58Q      -0.091900
     19 CAP         -0.2760    -3.0440    -0.1990 c6         1 58Q       0.169300
     20 NBN          0.7510    -1.9750    -0.3290 n3         1 58Q      -0.710600
     21 CAR          2.1130    -2.5300    -0.5340 c3         1 58Q       0.230100
     22 CBH          3.2290    -1.4780    -0.4640 ca         1 58Q      -0.142300
     23 CBC          3.8960    -1.0250    -1.6390 ca         1 58Q       0.023700
     24 CAB          3.5550    -1.5710    -3.0270 c3         1 58Q      -0.051800
     25 CBF          3.6070    -0.9640     0.8070 ca         1 58Q       0.199100
     26 OAZ          2.9660    -1.4480     1.9340 os         1 58Q      -0.322100
     27 CAA          3.2620    -0.9770     3.2600 c3         1 58Q       0.146900
     28 CAM          4.6280     0.0100     0.9120 ca         1 58Q      -0.251000
     29 CBL          5.2590     0.4480    -0.2590 ca         1 58Q       0.022800
     30 CBI          4.9070    -0.0580    -1.4810 ca         1 58Q      -0.154800
     31 CAK          5.7610     0.5720    -2.4540 cc         1 58Q      -0.150200
     32 CBD          6.6010     1.4390    -1.7690 cd         1 58Q       0.000200
     33 CAG          7.6290     2.2610    -2.3130 ch         1 58Q       0.316700
     34 NAC          8.4610     2.9570    -2.7480 n1         1 58Q      -0.463000
     35 NBO          6.2860     1.3790    -0.3930 na         1 58Q      -0.065700
     36 CAS          6.9310     2.0870     0.7280 c3         1 58Q       0.165900
     37 CBB          8.1820     1.3950     1.2010 cc         1 58Q      -0.254300
     38 CAI          9.4860     1.7630     1.0530 cd         1 58Q      -0.141000
     39 NAU         10.2210     0.7480     1.6780 na         1 58Q       0.001800
     40 NAY          9.4040    -0.2490     2.2120 nd         1 58Q      -0.517800
     41 CAJ          8.1970     0.1790     1.9020 cc         1 58Q       0.261900
     42 H1          -6.7420     2.0420     2.9160 hc         1 58Q       0.087200
     43 H2          -8.3590     1.3660     2.9560 hc         1 58Q       0.087200
     44 H3          -5.0170     1.0010     1.1520 ha         1 58Q       0.198000
     45 H4          -6.0910    -3.9380    -1.9920 h5         1 58Q       0.047100
     46 H5          -3.3310     0.0560     0.0930 hn         1 58Q       0.496000
     47 H6          -2.1920    -1.8940    -1.8610 h1         1 58Q       0.078700
     48 H7          -1.2770     0.4030    -1.7860 hc         1 58Q       0.054950
     49 H8          -0.9160     0.2450    -0.0650 hc         1 58Q       0.054950
     50 H9           0.3010    -1.4180    -2.3410 h1         1 58Q       0.035450
     51 H10          1.1120    -0.1560    -1.3990 h1         1 58Q       0.035450
     52 H11         -1.6120    -2.0070     1.1640 hc         1 58Q       0.054950
     53 H12         -2.3970    -3.2700     0.2170 hc         1 58Q       0.054950
     54 H13          0.0180    -3.7600     0.5820 h1         1 58Q       0.035450
     55 H14         -0.3590    -3.6080    -1.1410 h1         1 58Q       0.035450
     56 H16          2.3180    -3.2820     0.2390 h1         1 58Q       0.039200
     57 H17          2.1540    -3.0710    -1.4870 h1         1 58Q       0.039200
     58 H18          2.4820    -1.4980    -3.2330 hc         1 58Q       0.046367
     59 H19          4.0630    -1.0280    -3.8300 hc         1 58Q       0.046367
     60 H20          3.8450    -2.6240    -3.1130 hc         1 58Q       0.046367
     61 H21          4.3110    -1.1700     3.5180 h1         1 58Q       0.040700
     62 H22          3.0700     0.1010     3.3420 h1         1 58Q       0.040700
     63 H23          2.6310    -1.4920     3.9950 h1         1 58Q       0.040700
     64 H24          4.9300     0.4120     1.8720 ha         1 58Q       0.123000
     65 H25          5.7840     0.4100    -3.5290 ha         1 58Q       0.211000
     66 H26          7.1800     3.1040     0.4020 h1         1 58Q       0.066700
     67 H27          6.2230     2.1830     1.5600 h1         1 58Q       0.066700
     68 H28          9.9420     2.6240     0.5730 h4         1 58Q       0.163000
     69 H29         11.2380     0.7020     1.7550 hn         1 58Q       0.376000
     70 H30          7.3430    -0.4160     2.1990 h4         1 58Q       0.040100
     71 CAT         -7.5750     1.7240     2.2770 c3         1 58Q      -0.076200
@<TRIPOS>BOND
     1     1     2 ar  
     2     1     5 ar  
     3     1    11 1   
     4     2     3 ar  
     5     2    12 1   
     6     3     4 ar  
     7     3    14 1   
     8     4    13 ar  
     9     5    13 ar  
    10     6     7 1   
    11     7     8 1   
    12     7     9 1   
    13     7    71 1   
    14    10    11 1   
    15    10    12 2   
    16    10    71 1   
    17    12    44 1   
    18    13    45 1   
    19    14    15 1   
    20    14    46 1   
    21    15    16 1   
    22    15    18 1   
    23    15    47 1   
    24    16    17 1   
    25    16    48 1   
    26    16    49 1   
    27    17    20 1   
    28    17    50 1   
    29    17    51 1   
    30    18    19 1   
    31    18    52 1   
    32    18    53 1   
    33    19    20 1   
    34    19    54 1   
    35    19    55 1   
    36    20    21 1   
    37    21    22 1   
    38    21    56 1   
    39    21    57 1   
    40    22    23 ar  
    41    22    25 ar  
    42    23    24 1   
    43    23    30 ar  
    44    24    58 1   
    45    24    59 1   
    46    24    60 1   
    47    25    26 1   
    48    25    28 ar  
    49    26    27 1   
    50    27    61 1   
    51    27    62 1   
    52    27    63 1   
    53    28    29 ar  
    54    28    64 1   
    55    29    30 ar  
    56    29    35 1   
    57    30    31 1   
    58    31    32 2   
    59    31    65 1   
    60    32    33 1   
    61    32    35 1   
    62    33    34 3   
    63    35    36 1   
    64    36    37 1   
    65    36    66 1   
    66    36    67 1   
    67    37    38 2   
    68    37    41 1   
    69    38    39 1   
    70    38    68 1   
    71    39    40 1   
    72    39    69 1   
    73    40    41 2   
    74    41    70 1   
    75    42    71 1   
    76    43    71 1   
@<TRIPOS>SUBSTRUCTURE
     1 58Q         1 TEMP              0 ****  ****    0 ROOT
