@<TRIPOS>MOLECULE
58Q
   71    76     1     0     0
SMALL
bcc


@<TRIPOS>ATOM
      1 C4          -6.8380    -1.3930    -0.0580 ca         1 58Q       0.501600
      2 C5          -5.6490    -0.7360     0.2420 ca         1 58Q      -0.386400
      3 C6          -4.4680    -1.3770    -0.2190 ca         1 58Q       0.765200
      4 N1          -4.5690    -2.5200    -0.8990 nb         1 58Q      -0.811000
      5 N3          -6.9410    -2.5410    -0.7280 nb         1 58Q      -0.717000
      6 FAD         -9.3830     2.3680     0.2120 f          1 58Q      -0.234633
      7 CBP         -8.3680     2.9090     0.9020 c3         1 58Q       0.663900
      8 FAE         -7.4850     3.3570     0.0020 f          1 58Q      -0.234633
      9 FAF         -8.8580     3.9790     1.5410 f          1 58Q      -0.234633
     10 CBE         -7.1710     0.7380     1.1730 cc         1 58Q      -0.113600
     11 SBA         -8.2030    -0.5130     0.5370 ss         1 58Q      -0.076900
     12 CAL         -5.8600     0.4870     0.9450 cd         1 58Q      -0.064200
     13 C2          -5.7780    -3.0280    -1.1120 ca         1 58Q       0.704900
     14 NAX         -3.2590    -0.8530    -0.0050 nu         1 58Q      -0.858900
     15 CBM         -2.0180    -1.4220    -0.4950 c6         1 58Q       0.237500
     16 CAO         -0.9630    -0.3310    -0.6060 c6         1 58Q      -0.091900
     17 CAQ          0.3500    -0.9160    -1.1010 c6         1 58Q       0.169300
     18 CAN         -1.4880    -2.5500     0.3850 c6         1 58Q      -0.091900
     19 CAP         -0.1540    -3.0480    -0.1490 c6         1 58Q       0.169300
     20 NBN          0.8180    -1.9740    -0.2280 n3         1 58Q      -0.710600
     21 CAR          2.1200    -2.4850    -0.6280 c3         1 58Q       0.230100
     22 CBH          3.2130    -1.4530    -0.5230 ca         1 58Q      -0.142300
     23 CBC          3.8150    -0.9110    -1.6430 ca         1 58Q       0.023700
     24 CAB          3.4450    -1.3230    -3.0400 c3         1 58Q      -0.051800
     25 CBF          3.6220    -1.0380     0.7810 ca         1 58Q       0.199100
     26 OAZ          3.0000    -1.6590     1.7950 os         1 58Q      -0.298900
     27 CAA          3.3580    -1.3290     3.1200 c3         1 58Q       0.123700
     28 CAM          4.6010    -0.0830     0.9800 ca         1 58Q      -0.269000
     29 CBL          5.1890     0.4640    -0.1620 ca         1 58Q       0.022800
     30 CBI          4.8250     0.0580    -1.4610 ca         1 58Q      -0.154800
     31 CAK          5.6370     0.7920    -2.3640 cc         1 58Q      -0.100200
     32 CBD          6.4380     1.5970    -1.5970 cd         1 58Q       0.000200
     33 CAG          7.4250     2.5060    -2.0290 ch         1 58Q       0.227500
     34 NAC          8.2330     3.2470    -2.3890 n1         1 58Q      -0.373800
     35 NBO          6.1550     1.4140    -0.2590 na         1 58Q      -0.036400
     36 CAS          6.9100     1.9880     0.8420 c3         1 58Q       0.136600
     37 CBB          8.1740     1.2440     1.1150 cc         1 58Q      -0.319600
     38 CAI          9.4600     1.6210     0.7960 cd         1 58Q      -0.108300
     39 NAU         10.2590     0.6260     1.2080 na         1 58Q       0.001400
     40 NAY          9.5970    -0.3780     1.7710 nd         1 58Q      -0.517800
     41 CAJ          8.3290    -0.0180     1.7220 cc         1 58Q       0.327200
     42 H1          -6.9600     2.4370     2.4180 hc         1 58Q       0.087200
     43 H2          -8.5110     1.6330     2.5930 hc         1 58Q       0.087200
     44 H3          -5.0780     1.1610     1.2710 ha         1 58Q       0.148000
     45 H4          -5.8060    -3.9590    -1.6680 h5         1 58Q       0.047100
     46 H5          -3.1920    -0.0340     0.5770 hn         1 58Q       0.440800
     47 H6          -2.2120    -1.8230    -1.4940 h1         1 58Q       0.078700
     48 H7          -1.2940     0.4530    -1.2910 hc         1 58Q       0.054950
     49 H8          -0.8070     0.1310     0.3740 hc         1 58Q       0.054950
     50 H9           0.2130    -1.2770    -2.1370 h1         1 58Q       0.035450
     51 H10          1.1000    -0.1250    -1.1400 h1         1 58Q       0.035450
     52 H11         -1.3610    -2.1830     1.4080 hc         1 58Q       0.054950
     53 H12         -2.2030    -3.3740     0.4150 hc         1 58Q       0.054950
     54 H13          0.2360    -3.8280     0.5100 h1         1 58Q       0.035450
     55 H14         -0.3120    -3.5210    -1.1360 h1         1 58Q       0.035450
     56 H16          2.3590    -3.3320     0.0210 h1         1 58Q       0.039200
     57 H17          2.0900    -2.8960    -1.6490 h1         1 58Q       0.039200
     58 H18          2.3730    -1.2440    -3.2180 hc         1 58Q       0.046367
     59 H19          3.9430    -0.7040    -3.7830 hc         1 58Q       0.046367
     60 H20          3.7280    -2.3580    -3.2380 hc         1 58Q       0.046367
     61 H21          4.4120    -1.5410     3.3240 h1         1 58Q       0.040700
     62 H22          3.1600    -0.2780     3.3460 h1         1 58Q       0.040700
     63 H23          2.7440    -1.9490     3.7690 h1         1 58Q       0.040700
     64 H24          4.9060     0.2300     1.9680 ha         1 58Q       0.141000
     65 H25          5.6440     0.7550    -3.4420 ha         1 58Q       0.161000
     66 H26          7.1200     3.0330     0.6110 h1         1 58Q       0.066700
     67 H27          6.2600     1.9970     1.7160 h1         1 58Q       0.066700
     68 H28          9.8460     2.5080     0.3210 h4         1 58Q       0.181000
     69 H29         11.2630     0.5850     1.1320 hn         1 58Q       0.325700
     70 H30          7.5610    -0.6650     2.1190 h4         1 58Q       0.040100
     71 CAT         -7.7500     1.9250     1.8650 c3         1 58Q      -0.076200
@<TRIPOS>BOND
     1     1     2 ar  
     2     1     5 ar  
     3     1    11 1   
     4     2     3 ar  
     5     2    12 1   
     6     3     4 ar  
     7     3    14 1   
     8     4    13 ar  
     9     5    13 ar  
    10     6     7 1   
    11     7     8 1   
    12     7     9 1   
    13     7    71 1   
    14    10    11 1   
    15    10    12 2   
    16    10    71 1   
    17    12    44 1   
    18    13    45 1   
    19    14    15 1   
    20    14    46 1   
    21    15    16 1   
    22    15    18 1   
    23    15    47 1   
    24    16    17 1   
    25    16    48 1   
    26    16    49 1   
    27    17    20 1   
    28    17    50 1   
    29    17    51 1   
    30    18    19 1   
    31    18    52 1   
    32    18    53 1   
    33    19    20 1   
    34    19    54 1   
    35    19    55 1   
    36    20    21 1   
    37    21    22 1   
    38    21    56 1   
    39    21    57 1   
    40    22    23 ar  
    41    22    25 ar  
    42    23    24 1   
    43    23    30 ar  
    44    24    58 1   
    45    24    59 1   
    46    24    60 1   
    47    25    26 1   
    48    25    28 ar  
    49    26    27 1   
    50    27    61 1   
    51    27    62 1   
    52    27    63 1   
    53    28    29 ar  
    54    28    64 1   
    55    29    30 ar  
    56    29    35 1   
    57    30    31 1   
    58    31    32 2   
    59    31    65 1   
    60    32    33 1   
    61    32    35 1   
    62    33    34 3   
    63    35    36 1   
    64    36    37 1   
    65    36    66 1   
    66    36    67 1   
    67    37    38 2   
    68    37    41 1   
    69    38    39 1   
    70    38    68 1   
    71    39    40 1   
    72    39    69 1   
    73    40    41 2   
    74    41    70 1   
    75    42    71 1   
    76    43    71 1   
@<TRIPOS>SUBSTRUCTURE
     1 58Q         1 TEMP              0 ****  ****    0 ROOT
