@<TRIPOS>MOLECULE
58R
   61    65     1     0     0
SMALL
bcc


@<TRIPOS>ATOM
      1 C4          -6.0810    -1.3230     0.0590 ca         1 58R       0.499600
      2 C5          -4.8550    -0.6880     0.2160 ca         1 58R      -0.384400
      3 C6          -3.7360    -1.3870    -0.3090 ca         1 58R       0.761200
      4 N1          -3.9240    -2.5650    -0.9050 nb         1 58R      -0.808000
      5 N3          -6.2730    -2.4980    -0.5420 nb         1 58R      -0.714000
      6 FAD         -8.6580     2.4240     0.7080 f          1 58R      -0.234633
      7 CBK         -7.5200     2.9940     1.1330 c3         1 58R       0.663900
      8 FAE         -6.8520     3.3840     0.0400 f          1 58R      -0.234633
      9 FAF         -7.8630     4.1010     1.8020 f          1 58R      -0.234633
     10 CBA         -6.2410     0.8510     1.2490 cc         1 58R      -0.110600
     11 SAX         -7.3610    -0.3880     0.7520 ss         1 58R      -0.073900
     12 CAM         -4.9660     0.5610     0.8980 cd         1 58R      -0.067200
     13 C2          -5.1600    -3.0420    -0.9920 ca         1 58R       0.703900
     14 NAW         -2.5000    -0.8830    -0.2300 nu         1 58R      -0.854900
     15 CBH         -1.2940    -1.5990    -0.6020 c6         1 58R       0.234500
     16 CAO         -0.1860    -0.6030    -0.9140 c6         1 58R      -0.092400
     17 CAQ          1.1230    -1.3190    -1.2030 c6         1 58R       0.170300
     18 CAN         -0.8410    -2.5600     0.4940 c6         1 58R      -0.092400
     19 CAP          0.4950    -3.1940     0.1440 c6         1 58R       0.170300
     20 NBI          1.5030    -2.1790    -0.0970 n3         1 58R      -0.728600
     21 CAS          2.8170    -2.7600    -0.2780 c3         1 58R       0.220100
     22 CAZ          3.9160    -1.7290    -0.2360 ca         1 58R      -0.117300
     23 CAK          4.9350    -1.7440    -1.1620 ca         1 58R      -0.065000
     24 CAI          3.9140    -0.7570     0.7900 ca         1 58R      -0.078000
     25 CAJ          4.9020     0.1930     0.9070 ca         1 58R      -0.153000
     26 CBG          5.9340     0.1660    -0.0360 ca         1 58R      -0.021200
     27 CBD          5.9670    -0.7980    -1.0650 ca         1 58R      -0.109800
     28 CAL          7.1410    -0.5540    -1.8240 cc         1 58R      -0.112200
     29 CBB          7.7560     0.5220    -1.2410 cd         1 58R       0.037200
     30 CAG          8.9700     1.1360    -1.6170 ch         1 58R       0.216500
     31 NAA          9.9640     1.6310    -1.9290 n1         1 58R      -0.353800
     32 N            7.0180     0.9810    -0.1740 na         1 58R      -0.026400
     33 CA           7.4170     2.0060     0.7420 c3         1 58R      -0.046700
     34 C            8.3000     1.4500     1.8580 c          1 58R       0.649100
     35 O            8.8280     0.3570     1.7590 o          1 58R      -0.569100
     36 NAB          8.4460     2.2750     2.8980 nt         1 58R      -0.675000
     37 H1          -5.8370     2.5990     2.3640 hc         1 58R       0.087200
     38 H2          -7.3090     1.7800     2.8620 hc         1 58R       0.087200
     39 H3          -4.1390     1.2190     1.1290 ha         1 58R       0.148000
     40 H4          -5.2610    -4.0000    -1.4910 h5         1 58R       0.048100
     41 H5          -2.3730    -0.0480     0.3200 hn         1 58R       0.435800
     42 H6          -1.5150    -2.1730    -1.5050 h1         1 58R       0.085700
     43 H7          -0.4600     0.0130    -1.7720 hc         1 58R       0.053950
     44 H8          -0.0410     0.0690    -0.0610 hc         1 58R       0.053950
     45 H9           1.0360    -1.8920    -2.1440 h1         1 58R       0.038200
     46 H10          1.9060    -0.5760    -1.3610 h1         1 58R       0.038200
     47 H11         -0.7490    -2.0130     1.4380 hc         1 58R       0.053950
     48 H12         -1.5900    -3.3410     0.6390 hc         1 58R       0.053950
     49 H13          0.8250    -3.8260     0.9710 h1         1 58R       0.038200
     50 H14          0.3700    -3.8590    -0.7300 h1         1 58R       0.038200
     51 H16          2.9740    -3.4770     0.5350 h1         1 58R       0.039200
     52 H17          2.8930    -3.3400    -1.2130 h1         1 58R       0.039200
     53 H18          4.9460    -2.4780    -1.9590 ha         1 58R       0.135000
     54 H19          3.0960    -0.7580     1.4990 ha         1 58R       0.144000
     55 H20          4.8710     0.9240     1.7040 ha         1 58R       0.131000
     56 H21          7.4960    -1.0920    -2.6890 ha         1 58R       0.166000
     57 H22          7.9710     2.7810     0.2070 h1         1 58R       0.078700
     58 H23          6.5290     2.4950     1.1450 h1         1 58R       0.078700
     59 H24          7.9770     3.1640     2.9440 hn         1 58R       0.318000
     60 H25          9.0420     2.0260     3.6700 hn         1 58R       0.318000
     61 CAT         -6.7070     2.0570     1.9920 c3         1 58R      -0.077200
@<TRIPOS>BOND
     1     1     2 ar  
     2     1     5 ar  
     3     1    11 1   
     4     2     3 ar  
     5     2    12 1   
     6     3     4 ar  
     7     3    14 1   
     8     4    13 ar  
     9     5    13 ar  
    10     6     7 1   
    11     7     8 1   
    12     7     9 1   
    13     7    61 1   
    14    10    11 1   
    15    10    12 2   
    16    10    61 1   
    17    12    39 1   
    18    13    40 1   
    19    14    15 1   
    20    14    41 1   
    21    15    16 1   
    22    15    18 1   
    23    15    42 1   
    24    16    17 1   
    25    16    43 1   
    26    16    44 1   
    27    17    20 1   
    28    17    45 1   
    29    17    46 1   
    30    18    19 1   
    31    18    47 1   
    32    18    48 1   
    33    19    20 1   
    34    19    49 1   
    35    19    50 1   
    36    20    21 1   
    37    21    22 1   
    38    21    51 1   
    39    21    52 1   
    40    22    23 ar  
    41    22    24 ar  
    42    23    27 ar  
    43    23    53 1   
    44    24    25 ar  
    45    24    54 1   
    46    25    26 ar  
    47    25    55 1   
    48    26    27 ar  
    49    26    32 1   
    50    27    28 1   
    51    28    29 2   
    52    28    56 1   
    53    29    30 1   
    54    29    32 1   
    55    30    31 3   
    56    32    33 1   
    57    33    34 1   
    58    33    57 1   
    59    33    58 1   
    60    34    35 2   
    61    34    36 1   
    62    36    59 1   
    63    36    60 1   
    64    37    61 1   
    65    38    61 1   
@<TRIPOS>SUBSTRUCTURE
     1 58R         1 TEMP              0 ****  ****    0 ROOT
