@<TRIPOS>MOLECULE
58R
   61    65     1     0     0
SMALL
No Charge or Current Charge


@<TRIPOS>ATOM
      1 C4          -6.2200    -1.4520    -0.0570 ca         1 58R       0.171300
      2 C5          -4.9940    -0.8370     0.0690 ca         1 58R      -0.253800
      3 C6          -3.8640    -1.4770    -0.4570 ca         1 58R       0.432900
      4 N1          -3.9860    -2.6700    -1.0740 nb         1 58R      -0.282000
      5 N3          -6.3720    -2.6420    -0.6660 nb         1 58R      -0.188000
      6 FAD         -8.3810     2.7540     0.1990 f          1 58R      -0.113333
      7 CBK         -7.3280     3.1320     0.9600 c3         1 58R       0.300000
      8 FAE         -6.3320     3.5250     0.1320 f          1 58R      -0.113333
      9 FAF         -7.7080     4.2050     1.6900 f          1 58R      -0.113333
     10 CBA         -6.4040     0.7520     1.1440 cc         1 58R      -0.110600
     11 SAX         -7.5630    -0.5230     0.6620 ss         1 58R      -0.073900
     12 CAM         -5.1160     0.4280     0.7640 cd         1 58R      -0.117200
     13 C2          -5.2330    -3.1930    -1.1480 ca         1 58R       0.177900
     14 NAW         -2.5980    -0.9080    -0.3610 nu         1 58R      -0.910100
     15 CBH         -1.3220    -1.5990    -0.6230 c6         1 58R       0.234500
     16 CAO         -0.2000    -0.5560    -0.8140 c6         1 58R      -0.092400
     17 CAQ          1.1630    -1.2560    -1.0120 c6         1 58R       0.170300
     18 CAN         -0.9660    -2.5380     0.5510 c6         1 58R      -0.092400
     19 CAP          0.4160    -3.1900     0.3210 c6         1 58R       0.170300
     20 NBI          1.4780    -2.1650     0.1280 n3         1 58R      -0.728600
     21 CAS          2.8260    -2.7730     0.0250 c3         1 58R       0.220100
     22 CAZ          3.9530    -1.7460     0.0260 ca         1 58R      -0.117300
     23 CAK          4.7740    -1.5870    -1.1130 ca         1 58R      -0.047000
     24 CAI          4.1800    -0.9450     1.1730 ca         1 58R      -0.060000
     25 CAJ          5.2170     0.0120     1.1910 ca         1 58R      -0.135000
     26 CBG          6.0140     0.1500     0.0430 ca         1 58R      -0.021200
     27 CBD          5.7930    -0.6280    -1.0620 ca         1 58R      -0.109800
     28 CAL          6.7660    -0.2620    -2.0480 cc         1 58R      -0.162200
     29 CBB          7.5540     0.7400    -1.4920 cd         1 58R       0.037200
     30 CAG          8.6580     1.4070    -2.0930 ch         1 58R       0.305700
     31 NAA          9.5610     1.9760    -2.5690 n1         1 58R      -0.443000
     32 N            7.0830     1.0100    -0.1820 na         1 58R      -0.055700
     33 CA           7.5880     1.9890     0.8050 c3         1 58R      -0.017400
     34 C            8.6380     1.4190     1.7690 c          1 58R       0.582100
     35 O            9.2340     0.3690     1.5920 o          1 58R      -0.569100
     36 NAB          8.8920     2.1630     2.8700 nt         1 58R      -0.608000
     37 H1          -6.0530     2.3550     2.5210 hc         1 58R       0.087200
     38 H2          -7.6870     1.7230     2.5570 hc         1 58R       0.087200
     39 H3          -4.2750     1.0840     0.9760 ha         1 58R       0.198000
     40 H4          -5.3310    -4.1560    -1.6460 h5         1 58R       0.048100
     41 H5          -2.5660    -0.0110     0.1170 hn         1 58R       0.491000
     42 H6          -1.3880    -2.1930    -1.5490 h1         1 58R       0.085700
     43 H7          -0.4180     0.0780    -1.6840 hc         1 58R       0.053950
     44 H8          -0.1430     0.1080     0.0590 hc         1 58R       0.053950
     45 H9           1.1450    -1.8210    -1.9560 h1         1 58R       0.038200
     46 H10          1.9350    -0.4800    -1.1150 h1         1 58R       0.038200
     47 H11         -0.9530    -1.9760     1.4950 hc         1 58R       0.053950
     48 H12         -1.7270    -3.3210     0.6580 hc         1 58R       0.053950
     49 H13          0.6520    -3.8240     1.1890 h1         1 58R       0.038200
     50 H14          0.3600    -3.8510    -0.5560 h1         1 58R       0.038200
     51 H16          2.9910    -3.4510     0.8740 h1         1 58R       0.039200
     52 H17          2.8930    -3.3850    -0.8860 h1         1 58R       0.039200
     53 H18          4.6230    -2.1890    -2.0060 ha         1 58R       0.117000
     54 H19          3.5460    -1.0660     2.0490 ha         1 58R       0.126000
     55 H20          5.3860     0.6200     2.0750 ha         1 58R       0.113000
     56 H21          6.8880    -0.6810    -3.0440 ha         1 58R       0.216000
     57 H22          8.0380     2.8410     0.2830 h1         1 58R       0.078700
     58 H23          6.7480     2.3720     1.3960 h1         1 58R       0.078700
     59 H24          8.4060     3.0360     3.0200 hn         1 58R       0.318000
     60 H25          9.5760     1.8380     3.5380 hn         1 58R       0.318000
     61 CAT         -6.8630     1.9850     1.8820 c3         1 58R      -0.077200
@<TRIPOS>BOND
     1     1     2 ar  
     2     1     5 ar  
     3     1    11 1   
     4     2     3 ar  
     5     2    12 1   
     6     3     4 ar  
     7     3    14 1   
     8     4    13 ar  
     9     5    13 ar  
    10     6     7 1   
    11     7     8 1   
    12     7     9 1   
    13     7    61 1   
    14    10    11 1   
    15    10    12 2   
    16    10    61 1   
    17    12    39 1   
    18    13    40 1   
    19    14    15 1   
    20    14    41 1   
    21    15    16 1   
    22    15    18 1   
    23    15    42 1   
    24    16    17 1   
    25    16    43 1   
    26    16    44 1   
    27    17    20 1   
    28    17    45 1   
    29    17    46 1   
    30    18    19 1   
    31    18    47 1   
    32    18    48 1   
    33    19    20 1   
    34    19    49 1   
    35    19    50 1   
    36    20    21 1   
    37    21    22 1   
    38    21    51 1   
    39    21    52 1   
    40    22    23 ar  
    41    22    24 ar  
    42    23    27 ar  
    43    23    53 1   
    44    24    25 ar  
    45    24    54 1   
    46    25    26 ar  
    47    25    55 1   
    48    26    27 ar  
    49    26    32 1   
    50    27    28 1   
    51    28    29 2   
    52    28    56 1   
    53    29    30 1   
    54    29    32 1   
    55    30    31 3   
    56    32    33 1   
    57    33    34 1   
    58    33    57 1   
    59    33    58 1   
    60    34    35 2   
    61    34    36 1   
    62    36    59 1   
    63    36    60 1   
    64    37    61 1   
    65    38    61 1   
@<TRIPOS>SUBSTRUCTURE
     1 58R         1 TEMP              0 ****  ****    0 ROOT
