@<TRIPOS>MOLECULE
58T
   45    48     1     0     0
SMALL
No Charge or Current Charge


@<TRIPOS>ATOM
      1 O3           0.8600    -4.3450    -0.9870 o          1 58T      -0.564000
      2 C16          1.2080    -3.2020    -0.7450 c          1 58T       0.594000
      3 N4           2.3810    -2.7910    -0.1670 ns         1 58T      -0.486600
      4 C2           2.4520    -1.3850    -0.0140 ca         1 58T      -0.227400
      5 N3           0.5130    -2.0060    -0.9790 n          1 58T      -0.369300
      6 C3           1.2770    -0.8930    -0.5250 ca         1 58T       0.243900
      7 C15         -0.8460    -1.9300    -1.5380 c3         1 58T       0.168300
      8 C13         -1.8630    -1.4920    -0.4910 ca         1 58T      -0.090300
      9 C12         -2.3270    -2.4050     0.4750 ca         1 58T      -0.121000
     10 C11         -3.1850    -1.9740     1.5010 ca         1 58T      -0.089000
     11 C10         -3.5710    -0.6240     1.5730 ca         1 58T      -0.130000
     12 C14         -2.2810    -0.1500    -0.4340 ca         1 58T      -0.152000
     13 C9          -3.1300     0.2890     0.6020 ca         1 58T       0.127100
     14 O2          -3.4780     1.6150     0.7450 os         1 58T      -0.364100
     15 C8          -3.7410     2.4720    -0.3880 c3         1 58T       0.135600
     16 C7          -3.0600     3.8470    -0.1630 c3         1 58T       0.143600
     17 O1          -1.7170     3.8430    -0.7050 os         1 58T      -0.468000
     18 C6          -0.7020     3.1610     0.0650 c3         1 58T       0.132600
     19 C5           0.6120     3.2220    -0.7510 c3         1 58T       0.168600
     20 O            1.6910     2.5960    -0.0140 os         1 58T      -0.433300
     21 C4           1.9100     1.2320    -0.0230 ca         1 58T       0.400300
     22 N1           0.9670     0.4090    -0.5600 nb         1 58T      -0.286000
     23 N2           3.0920     0.8330     0.5180 nb         1 58T      -0.285000
     24 C1           3.3750    -0.4860     0.5230 ca         1 58T       0.444900
     25 N            4.5800    -0.9080     1.0720 nu         1 58T      -0.929100
     26 C            5.6290    -0.0600     1.6710 c3         1 58T       0.226100
     27 H4           3.0910    -3.4560     0.1300 hn         1 58T       0.464000
     28 H151        -0.8440    -1.2220    -2.3770 h1         1 58T       0.076200
     29 H152        -1.1350    -2.9110    -1.9380 h1         1 58T       0.076200
     30 H12         -2.0030    -3.4440     0.4440 ha         1 58T       0.126000
     31 H14         -1.8920     0.5520    -1.1650 ha         1 58T       0.136000
     32 H11         -3.5310    -2.6790     2.2540 ha         1 58T       0.116000
     33 H10         -4.2110    -0.2840     2.3820 ha         1 58T       0.125000
     34 H81C        -3.3970     2.0470    -1.3370 h1         1 58T       0.056200
     35 H82C        -4.8240     2.6260    -0.4800 h1         1 58T       0.056200
     36 H71C        -3.6560     4.6050    -0.6870 h1         1 58T       0.053700
     37 H72C        -3.0640     4.1070     0.9040 h1         1 58T       0.053700
     38 H61C        -0.5540     3.6560     1.0340 h1         1 58T       0.045700
     39 H62C        -0.9710     2.1170     0.2510 h1         1 58T       0.045700
     40 H51C         0.4710     2.7510    -1.7330 h1         1 58T       0.073200
     41 H52C         0.8510     4.2790    -0.9250 h1         1 58T       0.073200
     42 H            4.7460    -1.9130     1.0470 hn         1 58T       0.497000
     43 HC1          6.0110     0.6600     0.9340 h1         1 58T       0.046033
     44 HC2          5.2300     0.5000     2.5280 h1         1 58T       0.046033
     45 HC3          6.4690    -0.6740     2.0210 h1         1 58T       0.046033
@<TRIPOS>BOND
     1     1     2 2   
     2     2     3 1   
     3     2     5 1   
     4     3     4 1   
     5     3    27 1   
     6     4     6 ar  
     7     4    24 ar  
     8     5     6 1   
     9     5     7 1   
    10     6    22 ar  
    11     7     8 1   
    12     7    28 1   
    13     7    29 1   
    14     8     9 ar  
    15     8    12 ar  
    16     9    10 ar  
    17     9    30 1   
    18    10    11 ar  
    19    10    32 1   
    20    11    13 ar  
    21    11    33 1   
    22    12    13 ar  
    23    12    31 1   
    24    13    14 1   
    25    14    15 1   
    26    15    16 1   
    27    15    34 1   
    28    15    35 1   
    29    16    17 1   
    30    16    36 1   
    31    16    37 1   
    32    17    18 1   
    33    18    19 1   
    34    18    38 1   
    35    18    39 1   
    36    19    20 1   
    37    19    40 1   
    38    19    41 1   
    39    20    21 1   
    40    21    22 ar  
    41    21    23 ar  
    42    23    24 ar  
    43    24    25 1   
    44    25    26 1   
    45    25    42 1   
    46    26    43 1   
    47    26    44 1   
    48    26    45 1   
@<TRIPOS>SUBSTRUCTURE
     1 58T         1 TEMP              0 ****  ****    0 ROOT
