@<TRIPOS>MOLECULE
58T
   45    48     1     0     0
SMALL
abcg2


@<TRIPOS>ATOM
      1 O3           0.6680    -4.1830    -1.0450 o          1 58T      -0.564000
      2 C16          1.1130    -3.0800    -0.7850 c          1 58T       0.594000
      3 N4           2.2890    -2.7740    -0.1610 ns         1 58T      -0.486600
      4 C2           2.4090    -1.3980    -0.0240 ca         1 58T      -0.227400
      5 N3           0.5120    -1.8620    -1.0730 n          1 58T      -0.369300
      6 C3           1.2900    -0.8430    -0.5990 ca         1 58T       0.243900
      7 C15         -0.8270    -1.7040    -1.6040 c3         1 58T       0.168300
      8 C13         -1.8050    -1.3530    -0.5110 ca         1 58T      -0.090300
      9 C12         -2.1710    -2.3150     0.4250 ca         1 58T      -0.121000
     10 C11         -2.9980    -1.9640     1.4820 ca         1 58T      -0.089000
     11 C10         -3.4700    -0.6680     1.6100 ca         1 58T      -0.130000
     12 C14         -2.2850    -0.0530    -0.3960 ca         1 58T      -0.152000
     13 C9          -3.1140     0.2960     0.6690 ca         1 58T       0.127100
     14 O2          -3.5730     1.5480     0.8890 os         1 58T      -0.364100
     15 C8          -3.8530     2.4270    -0.1940 c3         1 58T       0.135600
     16 C7          -2.9070     3.6080    -0.2780 c3         1 58T       0.143600
     17 O1          -1.6520     3.3230    -0.8450 os         1 58T      -0.468000
     18 C6          -0.6110     2.9930     0.0450 c3         1 58T       0.132600
     19 C5           0.6670     3.0710    -0.7790 c3         1 58T       0.168600
     20 O            1.7870     2.5220    -0.0950 os         1 58T      -0.433300
     21 C4           1.9450     1.1950    -0.1010 ca         1 58T       0.400300
     22 N1           1.0170     0.4500    -0.6730 nb         1 58T      -0.286000
     23 N2           3.0590     0.7960     0.4900 nb         1 58T      -0.285000
     24 C1           3.3310    -0.5140     0.5470 ca         1 58T       0.444900
     25 N            4.4560    -0.9070     1.1570 nu         1 58T      -0.929100
     26 C            5.4070     0.0130     1.7320 c3         1 58T       0.226100
     27 H4           2.9250    -3.4790     0.1730 hn         1 58T       0.464000
     28 H151        -0.8070    -0.9340    -2.3750 h1         1 58T       0.076200
     29 H152        -1.0980    -2.6430    -2.0860 h1         1 58T       0.076200
     30 H12         -1.8050    -3.3310     0.3350 ha         1 58T       0.126000
     31 H14         -1.9720     0.6920    -1.1180 ha         1 58T       0.136000
     32 H11         -3.2870    -2.7090     2.2120 ha         1 58T       0.116000
     33 H10         -4.1140    -0.3960     2.4370 ha         1 58T       0.125000
     34 H81C        -3.8830     1.8910    -1.1460 h1         1 58T       0.056200
     35 H82C        -4.8560     2.8250    -0.0150 h1         1 58T       0.056200
     36 H71C        -3.3880     4.3440    -0.9280 h1         1 58T       0.053700
     37 H72C        -2.8050     4.0740     0.7100 h1         1 58T       0.053700
     38 H61C        -0.5700     3.7000     0.8830 h1         1 58T       0.045700
     39 H62C        -0.7300     1.9880     0.4630 h1         1 58T       0.045700
     40 H51C         0.5180     2.5710    -1.7380 h1         1 58T       0.073200
     41 H52C         0.9310     4.1110    -0.9730 h1         1 58T       0.073200
     42 H            4.6910    -1.8840     1.1570 hn         1 58T       0.497000
     43 HC1          5.8850     0.6390     0.9760 h1         1 58T       0.046033
     44 HC2          4.9360     0.6670     2.4660 h1         1 58T       0.046033
     45 HC3          6.1760    -0.5670     2.2320 h1         1 58T       0.046033
@<TRIPOS>BOND
     1     1     2 2   
     2     2     3 1   
     3     2     5 1   
     4     3     4 1   
     5     3    27 1   
     6     4     6 ar  
     7     4    24 ar  
     8     5     6 1   
     9     5     7 1   
    10     6    22 ar  
    11     7     8 1   
    12     7    28 1   
    13     7    29 1   
    14     8     9 ar  
    15     8    12 ar  
    16     9    10 ar  
    17     9    30 1   
    18    10    11 ar  
    19    10    32 1   
    20    11    13 ar  
    21    11    33 1   
    22    12    13 ar  
    23    12    31 1   
    24    13    14 1   
    25    14    15 1   
    26    15    16 1   
    27    15    34 1   
    28    15    35 1   
    29    16    17 1   
    30    16    36 1   
    31    16    37 1   
    32    17    18 1   
    33    18    19 1   
    34    18    38 1   
    35    18    39 1   
    36    19    20 1   
    37    19    40 1   
    38    19    41 1   
    39    20    21 1   
    40    21    22 ar  
    41    21    23 ar  
    42    23    24 ar  
    43    24    25 1   
    44    25    26 1   
    45    25    42 1   
    46    26    43 1   
    47    26    44 1   
    48    26    45 1   
@<TRIPOS>SUBSTRUCTURE
     1 58T         1 TEMP              0 ****  ****    0 ROOT
