@<TRIPOS>MOLECULE
58U
   22    21     1     0     0
SMALL
bcc


@<TRIPOS>ATOM
      1 O12          4.4470    -0.0560     0.1990 o          1 58U      -0.798800
      2 C11          3.3800     0.5610     0.0850 c          1 58U       0.859600
      3 O13          3.1960     1.7640    -0.1690 o          1 58U      -0.798800
      4 C3           2.0890    -0.2810     0.2990 c          1 58U       0.428100
      5 C5          -1.7200     0.2240    -0.0540 c          1 58U       0.583100
      6 C6          -2.9080    -0.4090     0.6400 c3         1 58U      -0.325400
      7 C7          -4.1630     0.3940     0.4590 c          1 58U       0.595900
      8 O14         -5.1630    -0.0260    -0.0640 o          1 58U      -0.531100
      9 C2           0.7820     0.3700    -0.0710 c3         1 58U      -0.185400
     10 C1          -0.4250    -0.5540     0.0060 c3         1 58U      -0.144700
     11 C10         -0.4440    -1.5750    -1.1430 c3         1 58U      -0.081100
     12 O16          2.1530    -1.3910     0.7750 o          1 58U      -0.571100
     13 H2          -3.0470    -1.4370     0.2960 hc         1 58U       0.084200
     14 H3          -2.6780    -0.4630     1.7110 hc         1 58U       0.084200
     15 H4          -4.1230     1.4170     0.8680 h4         1 58U      -0.005800
     16 H5           0.6640     1.2230     0.6060 hc         1 58U       0.076700
     17 H6           0.8730     0.8140    -1.0660 hc         1 58U       0.076700
     18 H7          -0.4110    -1.1070     0.9500 hc         1 58U       0.066700
     19 H8          -1.3150    -2.2280    -1.0940 hc         1 58U       0.037700
     20 H9          -0.4520    -1.0680    -2.1090 hc         1 58U       0.037700
     21 H10          0.4390    -2.2080    -1.0990 hc         1 58U       0.037700
     22 O4          -1.8300     1.2740    -0.6450 o          1 58U      -0.524100
@<TRIPOS>BOND
     1     1     2 1   
     2     2     3 1   
     3     2     4 1   
     4     4     9 1   
     5     4    12 2   
     6     5     6 1   
     7     5    10 1   
     8     5    22 2   
     9     6     7 1   
    10     6    13 1   
    11     6    14 1   
    12     7     8 2   
    13     7    15 1   
    14     9    10 1   
    15     9    16 1   
    16     9    17 1   
    17    10    11 1   
    18    10    18 1   
    19    11    19 1   
    20    11    20 1   
    21    11    21 1   
@<TRIPOS>SUBSTRUCTURE
     1 58U         1 TEMP              0 ****  ****    0 ROOT
