@<TRIPOS>MOLECULE
58U
   22    21     1     0     0
SMALL
No Charge or Current Charge


@<TRIPOS>ATOM
      1 O12          3.6830    -1.4740    -0.8210 o          1 58U      -0.693500
      2 C11          3.1090    -0.4400    -0.4830 c          1 58U       0.649000
      3 O13          3.3770     0.6590    -0.9620 o          1 58U      -0.693500
      4 C3           1.9710    -0.5300     0.6680 c          1 58U       0.428100
      5 C5          -1.7570     0.6130     0.0780 c          1 58U       0.583100
      6 C6          -2.8650     0.2050     1.0300 c3         1 58U      -0.325400
      7 C7          -3.9200    -0.4820     0.1930 c          1 58U       0.595900
      8 O14         -3.8350    -1.6570    -0.1440 o          1 58U      -0.531100
      9 C2           0.7550     0.4150     0.5480 c3         1 58U      -0.185400
     10 C1          -0.5100    -0.3030    -0.0130 c3         1 58U      -0.144700
     11 C10         -0.3110    -0.8280    -1.4570 c3         1 58U      -0.081100
     12 O16          2.0530    -1.3130     1.6200 o          1 58U      -0.571100
     13 H2          -2.4920    -0.5090     1.7720 hc         1 58U       0.084200
     14 H3          -3.3030     1.1120     1.4600 hc         1 58U       0.084200
     15 H4          -4.7890     0.1450    -0.1060 h4         1 58U      -0.005800
     16 H5           0.5210     0.8040     1.5460 hc         1 58U       0.076700
     17 H6           0.9970     1.2470    -0.1240 hc         1 58U       0.076700
     18 H7          -0.6940    -1.1760     0.6250 hc         1 58U       0.066700
     19 H8          -1.2240    -1.3160    -1.8190 hc         1 58U       0.037700
     20 H9          -0.0680    -0.0070    -2.1440 hc         1 58U       0.037700
     21 H10          0.5000    -1.5640    -1.5020 hc         1 58U       0.037700
     22 O4          -1.8540     1.6370    -0.5840 o          1 58U      -0.524100
@<TRIPOS>BOND
     1     1     2 1   
     2     2     3 1   
     3     2     4 1   
     4     4     9 1   
     5     4    12 2   
     6     5     6 1   
     7     5    10 1   
     8     5    22 2   
     9     6     7 1   
    10     6    13 1   
    11     6    14 1   
    12     7     8 2   
    13     7    15 1   
    14     9    10 1   
    15     9    16 1   
    16     9    17 1   
    17    10    11 1   
    18    10    18 1   
    19    11    19 1   
    20    11    20 1   
    21    11    21 1   
@<TRIPOS>SUBSTRUCTURE
     1 58U         1 TEMP              0 ****  ****    0 ROOT
