@<TRIPOS>MOLECULE
58V
   55    60     1     0     0
SMALL
No Charge or Current Charge


@<TRIPOS>ATOM
      1 C4          -2.5540    -0.6050    -1.2930 ca         1 58V      -0.045000
      2 C5          -1.1740    -0.4120    -1.1160 ca         1 58V      -0.145000
      3 C25         -1.6190     1.4880     0.3120 ca         1 58V      -0.173000
      4 C24          7.6010     1.5270     0.6320 cc         1 58V      -0.144000
      5 C21          7.3840    -0.5510    -0.2070 cd         1 58V       0.250900
      6 C18          4.6940     2.1080     0.4620 cc         1 58V      -0.039400
      7 C20          6.6850     0.6080     0.2020 cd         1 58V      -0.155800
      8 C3          -3.4820     0.2310    -0.6420 ca         1 58V      -0.170600
      9 C6          -0.6950     0.6260    -0.2950 ca         1 58V       0.336000
     10 C26         -3.0000     1.3020     0.1440 ca         1 58V       0.174000
     11 C19          5.2670     0.8850     0.1770 cd         1 58V      -0.059300
     12 C16          3.0520     0.8050    -0.0220 cd         1 58V      -0.182000
     13 C14          4.1540    -1.2910    -0.1610 cd         1 58V      -0.203000
     14 C8           1.8070     0.1560    -0.2110 cd         1 58V       0.680900
     15 C10          2.8990    -1.8730    -0.3550 cc         1 58V       0.397300
     16 C2          -4.9510    -0.0130    -0.8620 c          1 58V       0.631700
     17 C12          1.5500    -4.0850     0.0540 cx         1 58V      -0.106900
     18 C13          1.7760    -3.9730    -1.4370 cx         1 58V      -0.106900
     19 C29         -7.2830    -0.1700     0.0560 c6         1 58V       0.063000
     20 C33         -5.3150    -0.6460     1.5540 c6         1 58V       0.063000
     21 C30         -8.1220     0.0640     1.3390 c6         1 58V       0.135100
     22 C32         -6.2510    -0.3850     2.7610 c6         1 58V       0.135100
     23 C11          2.7660    -3.3490    -0.4740 cx         1 58V      -0.193000
     24 N23          8.8160     0.8610     0.4760 na         1 58V       0.002800
     25 N9           1.7150    -1.1380    -0.4110 nc         1 58V      -0.761000
     26 N22          8.6900    -0.4220    -0.0460 nc         1 58V      -0.513800
     27 N15          4.1920     0.0980    -0.1850 na         1 58V       0.177100
     28 N17          3.3210     2.0600     0.3250 nc         1 58V      -0.281600
     29 N28         -5.8040    -0.0580     0.2630 n          1 58V      -0.404800
     30 N7           0.6640     0.8740    -0.0940 nu         1 58V      -0.924900
     31 O1          -5.3970    -0.1080    -1.9990 o          1 58V      -0.586100
     32 O31         -7.6090    -0.7280     2.4270 os         1 58V      -0.446000
     33 Cl2         -4.0820     2.4880     0.8770 cl         1 58V      -0.193000
     34 H1          -2.9030    -1.4150    -1.9310 ha         1 58V       0.126000
     35 H2          -0.4840    -1.0660    -1.6370 ha         1 58V       0.157000
     36 H3          -1.2680     2.3170     0.9200 ha         1 58V       0.133000
     37 H5           7.0060    -1.4680    -0.6370 h4         1 58V       0.042100
     38 H6           5.1810     3.0310     0.7570 h4         1 58V       0.230000
     39 H7           5.0660    -1.8480    -0.0460 h4         1 58V       0.161000
     40 H8           0.7350    -3.5080     0.4870 hc         1 58V       0.078450
     41 H9           1.7080    -5.0560     0.5180 hc         1 58V       0.078450
     42 H10          2.0850    -4.8690    -1.9710 hc         1 58V       0.078450
     43 H11          1.1150    -3.3190    -2.0010 hc         1 58V       0.078450
     44 H12         -7.5090    -1.1720    -0.3360 h1         1 58V       0.063950
     45 H13         -7.6010     0.5550    -0.7060 h1         1 58V       0.063950
     46 H14         -4.3180    -0.2600     1.8040 h1         1 58V       0.063950
     47 H15         -5.2090    -1.7320     1.4220 h1         1 58V       0.063950
     48 H16         -8.0900     1.1270     1.6180 h1         1 58V       0.055200
     49 H17         -9.1710    -0.2080     1.1550 h1         1 58V       0.055200
     50 H18         -5.9280    -0.9850     3.6230 h1         1 58V       0.055200
     51 H19         -6.2050     0.6760     3.0480 h1         1 58V       0.055200
     52 H20          3.7200    -3.8600    -0.3680 hc         1 58V       0.083700
     53 H21          9.7330     1.2430     0.7050 hn         1 58V       0.377000
     54 H22          0.8830     1.7970     0.2690 hn         1 58V       0.527000
     55 H4           7.5130     2.5350     1.0190 h4         1 58V       0.162000
@<TRIPOS>BOND
     1     1     2 ar  
     2     1     8 ar  
     3     1    34 1   
     4     2     9 ar  
     5     2    35 1   
     6     3     9 ar  
     7     3    10 ar  
     8     3    36 1   
     9     4     7 2   
    10     4    24 1   
    11     4    55 1   
    12     5     7 1   
    13     5    26 2   
    14     5    37 1   
    15     6    11 2   
    16     6    28 1   
    17     6    38 1   
    18     7    11 1   
    19     8    10 ar  
    20     8    16 1   
    21     9    30 1   
    22    10    33 1   
    23    11    27 1   
    24    12    14 1   
    25    12    27 1   
    26    12    28 2   
    27    13    15 2   
    28    13    27 1   
    29    13    39 1   
    30    14    25 2   
    31    14    30 1   
    32    15    23 1   
    33    15    25 1   
    34    16    29 1   
    35    16    31 2   
    36    17    18 1   
    37    17    23 1   
    38    17    40 1   
    39    17    41 1   
    40    18    23 1   
    41    18    42 1   
    42    18    43 1   
    43    19    21 1   
    44    19    29 1   
    45    19    44 1   
    46    19    45 1   
    47    20    22 1   
    48    20    29 1   
    49    20    46 1   
    50    20    47 1   
    51    21    32 1   
    52    21    48 1   
    53    21    49 1   
    54    22    32 1   
    55    22    50 1   
    56    22    51 1   
    57    23    52 1   
    58    24    26 1   
    59    24    53 1   
    60    30    54 1   
@<TRIPOS>SUBSTRUCTURE
     1 58V         1 TEMP              0 ****  ****    0 ROOT
