@<TRIPOS>MOLECULE
58V
   55    60     1     0     0
SMALL
bcc


@<TRIPOS>ATOM
      1 C4          -2.5500    -0.9670    -0.6590 ca         1 58V      -0.063000
      2 C5          -1.1910    -0.7390    -0.5190 ca         1 58V      -0.163000
      3 C25         -1.6700     1.5660    -0.0130 ca         1 58V      -0.191000
      4 C24          7.4850     1.0530     1.2200 cc         1 58V      -0.111300
      5 C21          7.2600    -0.1700    -0.5940 cd         1 58V       0.316200
      6 C18          4.5000     2.1840     0.5890 cc         1 58V       0.010600
      7 C20          6.5310     0.6260     0.3170 cd         1 58V      -0.221100
      8 C3          -3.4900     0.0360    -0.4710 ca         1 58V      -0.170600
      9 C6          -0.7350     0.5410    -0.1910 ca         1 58V       0.197600
     10 C26         -3.0170     1.3040    -0.1580 ca         1 58V       0.082400
     11 C19          5.1290     0.9840     0.3170 cd         1 58V      -0.059300
     12 C16          2.9460     0.8250     0.1400 cd         1 58V      -0.196600
     13 C14          4.0980    -1.2220    -0.2870 cd         1 58V      -0.235600
     14 C8           1.7230     0.1350    -0.1220 cd         1 58V       0.746200
     15 C10          2.8940    -1.8060    -0.5090 cc         1 58V       0.462600
     16 C2          -4.9430    -0.2360    -0.7200 c          1 58V       0.698700
     17 C12          1.6670    -4.0740    -0.3580 cx         1 58V      -0.106900
     18 C13          1.7520    -3.7230    -1.8040 cx         1 58V      -0.106900
     19 C29         -7.1270    -0.7700     0.2270 c6         1 58V       0.063000
     20 C33         -5.2400    -0.5570     1.7290 c6         1 58V       0.063000
     21 C30         -7.9040     0.1530     1.1500 c6         1 58V       0.111900
     22 C32         -6.0900     0.3590     2.5950 c6         1 58V       0.111900
     23 C11          2.8150    -3.2400    -0.8560 cx         1 58V      -0.193000
     24 N23          8.6470     0.5240     0.8190 na         1 58V       0.002400
     25 N9           1.7140    -1.1270    -0.4330 nc         1 58V      -0.761000
     26 N22          8.5370    -0.2220    -0.2720 nc         1 58V      -0.513800
     27 N15          4.1090     0.1180     0.0310 na         1 58V       0.075700
     28 N17          3.1590     2.0790     0.4800 nc         1 58V      -0.281600
     29 N28         -5.7050    -0.4990     0.3540 n          1 58V      -0.471800
     30 N7           0.5950     0.8880    -0.0210 nu         1 58V      -0.731300
     31 O1          -5.3660    -0.2310    -1.8680 o          1 58V      -0.586100
     32 O31         -7.4610     0.0470     2.4850 os         1 58V      -0.399600
     33 CL2         -4.1470     2.5970     0.0760 cl         1 58V      -0.101400
     34 H1          -2.8830    -1.9650    -0.9140 ha         1 58V       0.144000
     35 H2          -0.4940    -1.5460    -0.6650 ha         1 58V       0.175000
     36 H3          -1.3390     2.5660     0.2380 ha         1 58V       0.151000
     37 H5           6.8980    -0.6860    -1.4710 h4         1 58V       0.042100
     38 H6           4.9830     3.1140     0.8480 h4         1 58V       0.180000
     39 H7           5.0420    -1.7420    -0.3360 h4         1 58V       0.179000
     40 H8           0.9130    -3.5780     0.2410 hc         1 58V       0.078450
     41 H9           1.8880    -5.0900    -0.0570 hc         1 58V       0.078450
     42 H10          2.0300    -4.4950    -2.5100 hc         1 58V       0.078450
     43 H11          1.0590    -2.9860    -2.1890 hc         1 58V       0.078450
     44 H12         -7.3150    -1.8150     0.4930 h1         1 58V       0.063950
     45 H13         -7.4450    -0.6220    -0.8020 h1         1 58V       0.063950
     46 H14         -4.1950    -0.2660     1.8040 h1         1 58V       0.063950
     47 H15         -5.3200    -1.5880     2.0870 h1         1 58V       0.063950
     48 H16         -7.8080     1.1880     0.7930 h1         1 58V       0.055200
     49 H17         -8.9620    -0.1130     1.1330 h1         1 58V       0.055200
     50 H18         -5.8090     0.2420     3.6420 h1         1 58V       0.055200
     51 H19         -5.9070     1.4030     2.3050 h1         1 58V       0.055200
     52 H20          3.7760    -3.7360    -0.9200 hc         1 58V       0.083700
     53 H21          9.5460     0.6380     1.2610 hn         1 58V       0.326700
     54 H22          0.7630     1.8540     0.2210 hn         1 58V       0.471800
     55 H4           7.4060     1.6770     2.0960 h4         1 58V       0.180000
@<TRIPOS>BOND
     1     1     2 ar  
     2     1     8 ar  
     3     1    34 1   
     4     2     9 ar  
     5     2    35 1   
     6     3     9 ar  
     7     3    10 ar  
     8     3    36 1   
     9     4     7 2   
    10     4    24 1   
    11     4    55 1   
    12     5     7 1   
    13     5    26 2   
    14     5    37 1   
    15     6    11 2   
    16     6    28 1   
    17     6    38 1   
    18     7    11 1   
    19     8    10 ar  
    20     8    16 1   
    21     9    30 1   
    22    10    33 1   
    23    11    27 1   
    24    12    14 1   
    25    12    27 1   
    26    12    28 2   
    27    13    15 2   
    28    13    27 1   
    29    13    39 1   
    30    14    25 2   
    31    14    30 1   
    32    15    23 1   
    33    15    25 1   
    34    16    29 1   
    35    16    31 2   
    36    17    18 1   
    37    17    23 1   
    38    17    40 1   
    39    17    41 1   
    40    18    23 1   
    41    18    42 1   
    42    18    43 1   
    43    19    21 1   
    44    19    29 1   
    45    19    44 1   
    46    19    45 1   
    47    20    22 1   
    48    20    29 1   
    49    20    46 1   
    50    20    47 1   
    51    21    32 1   
    52    21    48 1   
    53    21    49 1   
    54    22    32 1   
    55    22    50 1   
    56    22    51 1   
    57    23    52 1   
    58    24    26 1   
    59    24    53 1   
    60    30    54 1   
@<TRIPOS>SUBSTRUCTURE
     1 58V         1 TEMP              0 ****  ****    0 ROOT
