@<TRIPOS>MOLECULE
58W
   38    40     1     0     0
SMALL
No Charge or Current Charge


@<TRIPOS>ATOM
      1 C10         -3.1950     1.4340    -0.1470 ca         1 58W      -0.103000
      2 C11         -3.0690     0.0310    -0.1900 ca         1 58W      -0.076300
      3 C12         -3.0460    -2.1090     1.5120 cy         1 58W      -0.071900
      4 C13         -2.4590    -0.2140     2.4810 cy         1 58W      -0.071900
      5 C14         -2.6290    -1.6990     2.9750 cy         1 58W      -0.091400
      6 C15         -3.4830    -0.6660    -1.3410 ca         1 58W      -0.103000
      7 C16         -4.0210     0.0310    -2.4370 ca         1 58W      -0.106500
      8 C01          1.1360     0.3480     0.2220 ca         1 58W      -0.082000
      9 C02          2.1750    -0.6110     0.2820 ca         1 58W      -0.042000
     10 C03          3.5020    -0.2370     0.0040 ca         1 58W       0.002000
     11 C04          3.8040     1.0960    -0.3370 ca         1 58W       0.177100
     12 C05          2.7820     2.0500    -0.3990 ca         1 58W      -0.224000
     13 C06          1.4570     1.6800    -0.1220 ca         1 58W       0.139100
     14 C07         -3.7330     2.1300    -1.2430 ca         1 58W      -0.106500
     15 C08         -0.9080    -1.1010     0.8900 c          1 58W       0.621100
     16 C09         -2.4740    -0.7340     0.9890 cy         1 58W      -0.113700
     17 C           -4.1470     1.4290    -2.3880 ca         1 58W      -0.106000
     18 N           -0.2350     0.0490     0.4880 ns         1 58W      -0.137000
     19 O01         -0.2860    -2.1470     1.0650 o          1 58W      -0.586100
     20 O02          5.0870     1.4730    -0.6090 oh         1 58W      -0.527100
     21 O            0.4740     2.6260    -0.1870 oh         1 58W      -0.538100
     22 Cl           4.7770    -1.4540     0.0860 cl         1 58W      -0.202000
     23 H1          -2.8760     1.9890     0.7320 ha         1 58W       0.116000
     24 H2          -2.6150    -3.0350     1.1160 hc         1 58W       0.060950
     25 H3          -4.1320    -2.1880     1.3880 hc         1 58W       0.060950
     26 H4          -3.3210     0.4160     2.7250 hc         1 58W       0.060950
     27 H5          -1.5630     0.3100     2.8380 hc         1 58W       0.060950
     28 H6          -3.4010    -1.8500     3.7380 hc         1 58W       0.057200
     29 H7          -1.7060    -2.1670     3.3350 hc         1 58W       0.057200
     30 H8          -3.3870    -1.7480    -1.3890 ha         1 58W       0.116000
     31 H9          -4.3400    -0.5130    -3.3230 ha         1 58W       0.114000
     32 H10          1.9840    -1.6470     0.5370 ha         1 58W       0.158000
     33 H11          3.0260     3.0760    -0.6630 ha         1 58W       0.133000
     34 H12         -3.8280     3.2130    -1.2050 ha         1 58W       0.114000
     35 H13         -4.5630     1.9690    -3.2360 ha         1 58W       0.114000
     36 H14         -0.8450     0.8450     0.3530 hn         1 58W       0.171000
     37 H15          5.6560     0.6780    -0.5160 ho         1 58W       0.481000
     38 H16          0.8810     3.4820    -0.4400 ho         1 58W       0.474000
@<TRIPOS>BOND
     1     1     2 ar  
     2     1    14 ar  
     3     1    23 1   
     4     2     6 ar  
     5     2    16 1   
     6     3     5 1   
     7     3    16 1   
     8     3    24 1   
     9     3    25 1   
    10     4     5 1   
    11     4    16 1   
    12     4    26 1   
    13     4    27 1   
    14     5    28 1   
    15     5    29 1   
    16     6     7 ar  
    17     6    30 1   
    18     7    17 ar  
    19     7    31 1   
    20     8     9 ar  
    21     8    13 ar  
    22     8    18 1   
    23     9    10 ar  
    24     9    32 1   
    25    10    11 ar  
    26    10    22 1   
    27    11    12 ar  
    28    11    20 1   
    29    12    13 ar  
    30    12    33 1   
    31    13    21 1   
    32    14    17 ar  
    33    14    34 1   
    34    15    16 1   
    35    15    18 1   
    36    15    19 2   
    37    17    35 1   
    38    18    36 1   
    39    20    37 1   
    40    21    38 1   
@<TRIPOS>SUBSTRUCTURE
     1 58W         1 TEMP              0 ****  ****    0 ROOT
