@<TRIPOS>MOLECULE
58W
   38    40     1     0     0
SMALL
abcg2


@<TRIPOS>ATOM
      1 C10         -3.3420     1.3890     0.1350 ca         1 58W      -0.103000
      2 C11         -3.0060     0.0530    -0.0630 ca         1 58W      -0.076300
      3 C12         -2.9870    -2.1230     1.3640 cy         1 58W      -0.071900
      4 C13         -2.5290    -0.3560     2.4980 cy         1 58W      -0.071900
      5 C14         -2.7120    -1.8410     2.8500 cy         1 58W      -0.091400
      6 C15         -3.2750    -0.5300    -1.3010 ca         1 58W      -0.103000
      7 C16         -3.8680     0.2060    -2.3160 ca         1 58W      -0.106500
      8 C01          1.1530     0.4450     0.2260 ca         1 58W      -0.082000
      9 C02          2.1590    -0.3980     0.6730 ca         1 58W      -0.042000
     10 C03          3.4840    -0.1400     0.3590 ca         1 58W       0.002000
     11 C04          3.8480     0.9730    -0.3930 ca         1 58W       0.177100
     12 C05          2.8400     1.8290    -0.8260 ca         1 58W      -0.224000
     13 C06          1.5120     1.5710    -0.5330 ca         1 58W       0.139100
     14 C07         -3.9320     2.1300    -0.8830 ca         1 58W      -0.106500
     15 C08         -0.8460    -0.9210     0.7060 c          1 58W       0.621100
     16 C09         -2.3370    -0.7670     1.0080 cy         1 58W      -0.113700
     17 C           -4.1980     1.5410    -2.1100 ca         1 58W      -0.106000
     18 N           -0.2050     0.2590     0.5190 ns         1 58W      -0.137000
     19 O01         -0.2830    -2.0000     0.6690 o          1 58W      -0.586100
     20 O02          5.1120     1.2700    -0.7240 oh         1 58W      -0.527100
     21 O            0.5100     2.3710    -0.9380 oh         1 58W      -0.538100
     22 CL           4.7230    -1.2210     0.9180 cl         1 58W      -0.202000
     23 H1          -3.1480     1.8590     1.0920 ha         1 58W       0.116000
     24 H2          -2.5580    -3.0190     0.9200 hc         1 58W       0.060950
     25 H3          -4.0550    -2.0980     1.1420 hc         1 58W       0.060950
     26 H4          -3.4550     0.2060     2.6280 hc         1 58W       0.060950
     27 H5          -1.7210     0.1950     2.9800 hc         1 58W       0.060950
     28 H6          -3.5040    -2.0840     3.5570 hc         1 58W       0.057200
     29 H7          -1.7870    -2.3030     3.1950 hc         1 58W       0.057200
     30 H8          -3.0190    -1.5690    -1.4720 ha         1 58W       0.116000
     31 H9          -4.0750    -0.2620    -3.2700 ha         1 58W       0.114000
     32 H10          1.9220    -1.2620     1.2740 ha         1 58W       0.158000
     33 H11          3.1080     2.7010    -1.4120 ha         1 58W       0.133000
     34 H12         -4.1880     3.1670    -0.7100 ha         1 58W       0.114000
     35 H13         -4.6620     2.1140    -2.9010 ha         1 58W       0.114000
     36 H14         -0.7760     1.0910     0.4920 hn         1 58W       0.171000
     37 H15          5.7250     0.6120    -0.3740 ho         1 58W       0.481000
     38 H16          0.8510     3.1480    -1.3950 ho         1 58W       0.474000
@<TRIPOS>BOND
     1     1     2 ar  
     2     1    14 ar  
     3     1    23 1   
     4     2     6 ar  
     5     2    16 1   
     6     3     5 1   
     7     3    16 1   
     8     3    24 1   
     9     3    25 1   
    10     4     5 1   
    11     4    16 1   
    12     4    26 1   
    13     4    27 1   
    14     5    28 1   
    15     5    29 1   
    16     6     7 ar  
    17     6    30 1   
    18     7    17 ar  
    19     7    31 1   
    20     8     9 ar  
    21     8    13 ar  
    22     8    18 1   
    23     9    10 ar  
    24     9    32 1   
    25    10    11 ar  
    26    10    22 1   
    27    11    12 ar  
    28    11    20 1   
    29    12    13 ar  
    30    12    33 1   
    31    13    21 1   
    32    14    17 ar  
    33    14    34 1   
    34    15    16 1   
    35    15    18 1   
    36    15    19 2   
    37    17    35 1   
    38    18    36 1   
    39    20    37 1   
    40    21    38 1   
@<TRIPOS>SUBSTRUCTURE
     1 58W         1 TEMP              0 ****  ****    0 ROOT
