@<TRIPOS>MOLECULE
58X
   27    26     1     0     0
SMALL
No Charge or Current Charge


@<TRIPOS>ATOM
      1 CAA          4.9800     0.1410    -0.2430 c3         1 58X      -0.048400
      2 CAB          3.5070     0.2880     0.0920 c2         1 58X      -0.143400
      3 CAC          2.7010    -0.7750     0.2790 c2         1 58X      -0.197200
      4 CAD          1.2270    -0.7650     0.6430 c3         1 58X      -0.045200
      5 CAE          0.3150    -0.7120    -0.6020 c3         1 58X      -0.028200
      6 CAF          3.0790     1.7450     0.1800 c3         1 58X      -0.048400
      7 CAG         -1.1660    -0.6720    -0.2470 c2         1 58X      -0.169400
      8 CAH         -1.8700     0.4940    -0.2550 ce         1 58X      -0.238200
      9 CAI         -1.7250    -2.0430     0.1150 c3         1 58X      -0.029900
     10 CAJ         -3.3190     0.7240     0.0700 c          1 58X       0.699200
     11 OAK         -3.7240     1.8730    -0.0080 o          1 58X      -0.732000
     12 OAL         -4.0370    -0.2090     0.3930 o          1 58X      -0.732000
     13 H1           5.2140     0.6040    -1.2090 hc         1 58X       0.032200
     14 H2           5.6080     0.6190     0.5180 hc         1 58X       0.032200
     15 H3           5.2820    -0.9120    -0.3030 hc         1 58X       0.032200
     16 H4           3.1110    -1.7820     0.1870 ha         1 58X       0.153000
     17 H5           0.9890    -1.6620     1.2290 hc         1 58X       0.045700
     18 H6           0.9920     0.0840     1.2950 hc         1 58X       0.045700
     19 H7           0.5840     0.1770    -1.1870 hc         1 58X       0.026700
     20 H8           0.5350    -1.5690    -1.2500 hc         1 58X       0.026700
     21 H9           2.0060     1.8660     0.3600 hc         1 58X       0.032200
     22 H10          3.6060     2.2600     0.9930 hc         1 58X       0.032200
     23 H11          3.3070     2.2770    -0.7520 hc         1 58X       0.032200
     24 H12         -1.3490     1.4100    -0.5260 ha         1 58X       0.140000
     25 H13         -2.1080    -2.0530     1.1420 hc         1 58X       0.027700
     26 H14         -2.5450    -2.3240    -0.5560 hc         1 58X       0.027700
     27 H15         -0.9710    -2.8370     0.0470 hc         1 58X       0.027700
@<TRIPOS>BOND
     1     1     2 1   
     2     1    13 1   
     3     1    14 1   
     4     1    15 1   
     5     2     3 2   
     6     2     6 1   
     7     3     4 1   
     8     3    16 1   
     9     4     5 1   
    10     4    17 1   
    11     4    18 1   
    12     5     7 1   
    13     5    19 1   
    14     5    20 1   
    15     6    21 1   
    16     6    22 1   
    17     6    23 1   
    18     7     8 2   
    19     7     9 1   
    20     8    10 1   
    21     8    24 1   
    22     9    25 1   
    23     9    26 1   
    24     9    27 1   
    25    10    11 1   
    26    10    12 1   
@<TRIPOS>SUBSTRUCTURE
     1 58X         1 TEMP              0 ****  ****    0 ROOT
