@<TRIPOS>MOLECULE
58X
   27    26     1     0     0
SMALL
bcc


@<TRIPOS>ATOM
      1 CAA          4.9210     0.1440    -0.3500 c3         1 58X      -0.048400
      2 CAB          3.5060     0.2950     0.1280 c2         1 58X      -0.143400
      3 CAC          2.6670    -0.7440     0.1380 c2         1 58X      -0.147200
      4 CAD          1.2290    -0.7510     0.5600 c3         1 58X      -0.045200
      5 CAE          0.2830    -0.6690    -0.6480 c3         1 58X      -0.028200
      6 CAF          3.1440     1.6820     0.5680 c3         1 58X      -0.048400
      7 CAG         -1.1730    -0.6760    -0.2640 c2         1 58X      -0.169400
      8 CAH         -1.9310     0.3950    -0.5340 ce         1 58X      -0.188200
      9 CAI         -1.6390    -1.9340     0.4100 c3         1 58X      -0.029900
     10 CAJ         -3.3940     0.6300    -0.2510 c          1 58X       0.909800
     11 OAK         -3.8750     1.6520    -0.7910 o          1 58X      -0.837300
     12 OAL         -4.0160    -0.1670     0.4820 o          1 58X      -0.837300
     13 H1           5.1250     0.8110    -1.1920 hc         1 58X       0.032200
     14 H2           5.6300     0.4160     0.4360 hc         1 58X       0.032200
     15 H3           5.1420    -0.8760    -0.6650 hc         1 58X       0.032200
     16 H4           3.0420    -1.6960    -0.2320 ha         1 58X       0.103000
     17 H5           1.0300    -1.6690     1.1180 hc         1 58X       0.045700
     18 H6           1.0080     0.0730     1.2410 hc         1 58X       0.045700
     19 H7           0.5190     0.2360    -1.2130 hc         1 58X       0.026700
     20 H8           0.4860    -1.5170    -1.3130 hc         1 58X       0.026700
     21 H9           2.1190     1.7750     0.9220 hc         1 58X       0.032200
     22 H10          3.8080     2.0220     1.3680 hc         1 58X       0.032200
     23 H11          3.2730     2.3860    -0.2580 hc         1 58X       0.032200
     24 H12         -1.4400     1.2180    -1.0480 ha         1 58X       0.090000
     25 H13         -1.3910    -1.9200     1.4750 hc         1 58X       0.027700
     26 H14         -2.7120    -2.0700     0.3320 hc         1 58X       0.027700
     27 H15         -1.1310    -2.8010    -0.0140 hc         1 58X       0.027700
@<TRIPOS>BOND
     1     1     2 1   
     2     1    13 1   
     3     1    14 1   
     4     1    15 1   
     5     2     3 2   
     6     2     6 1   
     7     3     4 1   
     8     3    16 1   
     9     4     5 1   
    10     4    17 1   
    11     4    18 1   
    12     5     7 1   
    13     5    19 1   
    14     5    20 1   
    15     6    21 1   
    16     6    22 1   
    17     6    23 1   
    18     7     8 2   
    19     7     9 1   
    20     8    10 1   
    21     8    24 1   
    22     9    25 1   
    23     9    26 1   
    24     9    27 1   
    25    10    11 1   
    26    10    12 1   
@<TRIPOS>SUBSTRUCTURE
     1 58X         1 TEMP              0 ****  ****    0 ROOT
