@<TRIPOS>MOLECULE
58Y
   29    30     1     0     0
SMALL
bcc


@<TRIPOS>ATOM
      1 C1          -0.2000     0.6870    -1.0900 c5         1 58Y       0.286200
      2 C2          -0.8560    -0.6700    -0.8410 c5         1 58Y       0.148500
      3 C3          -0.3250    -1.3170     0.4400 c6         1 58Y       0.119100
      4 C4           1.1980    -1.2690     0.4740 c6         1 58Y       0.090100
      5 C5           1.6070     0.2010     0.3840 c6         1 58Y       0.101100
      6 C6           3.1050     0.3950     0.4550 c3         1 58Y       0.148400
      7 C7          -2.6780     0.7750    -0.1010 c5         1 58Y       0.288600
      8 C8          -3.2300     0.4990     1.2880 c3         1 58Y      -0.114100
      9 N2          -2.2750    -0.3970    -0.8720 n7         1 58Y      -0.822200
     10 S1          -1.1910     1.8460    -0.0380 ss         1 58Y      -0.435200
     11 O3          -0.8490    -2.6190     0.4930 oh         1 58Y      -0.578800
     12 O4           1.7020    -2.0410    -0.5870 oh         1 58Y      -0.570800
     13 O5           1.1550     0.7650    -0.8350 os         1 58Y      -0.349600
     14 O6           3.3870     1.7700     0.5390 oh         1 58Y      -0.577800
     15 H1          -0.3300     0.9800    -2.1320 h2         1 58Y       0.118700
     16 H2          -0.6130    -1.3300    -1.6810 h1         1 58Y       0.115700
     17 H3          -0.6620    -0.7280     1.3020 h1         1 58Y       0.045700
     18 H4           1.5380    -1.6560     1.4470 h1         1 58Y       0.033700
     19 H5           1.1520     0.7290     1.2350 h1         1 58Y       0.073700
     20 H6           3.4660    -0.1490     1.3390 h1         1 58Y       0.023700
     21 H7           3.5820    -0.0610    -0.4220 h1         1 58Y       0.023700
     22 H8          -3.4420     1.3160    -0.6650 h2         1 58Y       0.089700
     23 H9          -3.5470     1.4260     1.7680 hc         1 58Y       0.045367
     24 H10         -4.1090    -0.1450     1.2140 hc         1 58Y       0.045367
     25 H11         -2.5020     0.0130     1.9340 hc         1 58Y       0.045367
     26 H12         -2.8200    -1.2100    -0.6120 hn         1 58Y       0.390800
     27 H14         -0.6770    -2.9830     1.3670 ho         1 58Y       0.405000
     28 H15          2.6330    -2.2220    -0.4320 ho         1 58Y       0.404000
     29 H16          4.3420     1.8790     0.5410 ho         1 58Y       0.406000
@<TRIPOS>BOND
     1     1     2 1   
     2     1    10 1   
     3     1    13 1   
     4     1    15 1   
     5     2     3 1   
     6     2     9 1   
     7     2    16 1   
     8     3     4 1   
     9     3    11 1   
    10     3    17 1   
    11     4     5 1   
    12     4    12 1   
    13     4    18 1   
    14     5     6 1   
    15     5    13 1   
    16     5    19 1   
    17     6    14 1   
    18     6    20 1   
    19     6    21 1   
    20     7     8 1   
    21     7     9 1   
    22     7    10 1   
    23     7    22 1   
    24     8    23 1   
    25     8    24 1   
    26     8    25 1   
    27     9    26 1   
    28    11    27 1   
    29    12    28 1   
    30    14    29 1   
@<TRIPOS>SUBSTRUCTURE
     1 58Y         1 TEMP              0 ****  ****    0 ROOT
