@<TRIPOS>MOLECULE
58Y
   29    30     1     0     0
SMALL
No Charge or Current Charge


@<TRIPOS>ATOM
      1 C1          -0.2760     0.7340    -1.0970 c5         1 58Y       0.357300
      2 C2          -0.8550    -0.6750    -0.7940 c5         1 58Y       0.148500
      3 C3          -0.3710    -1.2850     0.5620 c6         1 58Y       0.142300
      4 C4           1.1770    -1.2500     0.6220 c6         1 58Y       0.113300
      5 C5           1.6440     0.2300     0.4270 c6         1 58Y       0.124300
      6 C6           3.1970     0.4010     0.4810 c3         1 58Y       0.171600
      7 C7          -2.7420     0.7850    -0.1680 c5         1 58Y       0.336500
      8 C8          -3.4450     0.5650     1.1830 c3         1 58Y      -0.114100
      9 N2          -2.3490    -0.5050    -0.8000 n7         1 58Y      -0.877400
     10 S1          -1.2080     1.8100     0.0710 ss         1 58Y      -0.531000
     11 O3          -0.8360    -2.6370     0.7190 oh         1 58Y      -0.641000
     12 O4           1.7130    -2.1400    -0.3860 oh         1 58Y      -0.693000
     13 O5           1.1540     0.7950    -0.8210 os         1 58Y      -0.396000
     14 O6           3.6190     1.7740     0.3730 oh         1 58Y      -0.700000
     15 H1          -0.4900     1.0300    -2.1330 h2         1 58Y       0.118700
     16 H2          -0.5440    -1.3670    -1.5910 h1         1 58Y       0.115700
     17 H3          -0.7450    -0.6730     1.3930 h1         1 58Y       0.045700
     18 H4           1.4930    -1.5840     1.6220 h1         1 58Y       0.033700
     19 H5           1.2310     0.8260     1.2550 h1         1 58Y       0.073700
     20 H6           3.5550    -0.0240     1.4280 h1         1 58Y       0.023700
     21 H7           3.6420    -0.1890    -0.3320 h1         1 58Y       0.023700
     22 H8          -3.4270     1.3340    -0.8320 h2         1 58Y       0.089700
     23 H9          -3.7310     1.5240     1.6300 hc         1 58Y       0.045367
     24 H10         -4.3600    -0.0260     1.0560 hc         1 58Y       0.045367
     25 H11         -2.8030     0.0420     1.9000 hc         1 58Y       0.045367
     26 H12         -2.7790    -1.2870    -0.2890 hn         1 58Y       0.446000
     27 H14         -0.1640    -3.1850     0.2520 ho         1 58Y       0.444000
     28 H15          2.6580    -2.3100    -0.1650 ho         1 58Y       0.503000
     29 H16          4.6040     1.7710     0.3470 ho         1 58Y       0.505000
@<TRIPOS>BOND
     1     1     2 1   
     2     1    10 1   
     3     1    13 1   
     4     1    15 1   
     5     2     3 1   
     6     2     9 1   
     7     2    16 1   
     8     3     4 1   
     9     3    11 1   
    10     3    17 1   
    11     4     5 1   
    12     4    12 1   
    13     4    18 1   
    14     5     6 1   
    15     5    13 1   
    16     5    19 1   
    17     6    14 1   
    18     6    20 1   
    19     6    21 1   
    20     7     8 1   
    21     7     9 1   
    22     7    10 1   
    23     7    22 1   
    24     8    23 1   
    25     8    24 1   
    26     8    25 1   
    27     9    26 1   
    28    11    27 1   
    29    12    28 1   
    30    14    29 1   
@<TRIPOS>SUBSTRUCTURE
     1 58Y         1 TEMP              0 ****  ****    0 ROOT
