@<TRIPOS>MOLECULE
58Z
   40    42     1     0     0
SMALL
No Charge or Current Charge


@<TRIPOS>ATOM
      1 O21          4.9950     2.4470    -0.5950 o          1 58Z      -0.738000
      2 C19          5.4110     1.5080     0.0690 c          1 58Z       0.722000
      3 O20          6.5150     1.4880     0.5930 o          1 58Z      -0.738000
      4 C16          4.4970     0.2730     0.2590 c6         1 58Z      -0.188700
      5 C15          4.1550    -0.4270    -1.0830 c6         1 58Z      -0.052900
      6 C14          3.2240    -1.6470    -0.8600 c6         1 58Z       0.164300
      7 C17          3.1810     0.6170     1.0090 c6         1 58Z      -0.052900
      8 C18          2.2760    -0.6320     1.1670 c6         1 58Z       0.164300
      9 N13          1.9730    -1.2730    -0.1450 n3         1 58Z      -0.701600
     10 C12          1.0330    -2.4280    -0.0380 c3         1 58Z       0.171800
     11 C11         -0.3830    -2.1280     0.5290 c3         1 58Z       0.168600
     12 O10         -1.0410    -1.1680    -0.3210 os         1 58Z      -0.320100
     13 C3          -2.3170    -0.7100    -0.0630 ca         1 58Z       0.123100
     14 C2          -3.0800    -1.1600     1.0510 ca         1 58Z      -0.169000
     15 C4          -2.8670     0.2380    -0.9510 ca         1 58Z      -0.104000
     16 C5          -4.1610     0.7080    -0.6980 ca         1 58Z      -0.060800
     17 C7          -4.9640     1.6530    -1.4100 cc         1 58Z      -0.244200
     18 C8          -6.1720     1.7570    -0.7290 cd         1 58Z      -0.168100
     19 N9          -6.1380     0.8940     0.3950 na         1 58Z      -0.232700
     20 C6          -4.8960     0.2790     0.3700 ca         1 58Z      -0.086200
     21 C1          -4.3830    -0.6620     1.2730 ca         1 58Z      -0.102000
     22 H16          5.0520    -0.4470     0.8780 hc         1 58Z       0.018700
     23 H15          3.6650     0.2810    -1.7660 hc         1 58Z       0.049450
     24 H15A         5.0780    -0.7550    -1.5820 hc         1 58Z       0.049450
     25 H14          2.9820    -2.0850    -1.8390 h1         1 58Z       0.007200
     26 H14A         3.7690    -2.4130    -0.2890 h1         1 58Z       0.007200
     27 H17          3.4100     1.0330     2.0000 hc         1 58Z       0.049450
     28 H17A         2.6290     1.3950     0.4640 hc         1 58Z       0.049450
     29 H18          2.7730    -1.3540     1.8320 h1         1 58Z       0.007200
     30 H18A         1.3490    -0.3160     1.6650 h1         1 58Z       0.007200
     31 H12          0.8950    -2.8740    -1.0320 h1         1 58Z       0.026700
     32 H12A         1.4860    -3.2060     0.5920 h1         1 58Z       0.026700
     33 H11         -0.9550    -3.0650     0.5570 h1         1 58Z       0.022200
     34 H11A        -0.3030    -1.7500     1.5560 h1         1 58Z       0.022200
     35 H2          -2.6790    -1.8890     1.7490 ha         1 58Z       0.112000
     36 H4          -2.2990     0.5930    -1.8070 ha         1 58Z       0.137000
     37 H7          -4.6950     2.1960    -2.3140 ha         1 58Z       0.204000
     38 H8          -7.0400     2.3720    -0.9570 h4         1 58Z       0.202000
     39 H1          -4.9720    -1.0010     2.1230 ha         1 58Z       0.103000
     40 HN9         -6.8750     0.7540     1.0810 hn         1 58Z       0.340000
@<TRIPOS>BOND
     1     1     2 1   
     2     2     3 1   
     3     2     4 1   
     4     4     5 1   
     5     4     7 1   
     6     4    22 1   
     7     5     6 1   
     8     5    23 1   
     9     5    24 1   
    10     6     9 1   
    11     6    25 1   
    12     6    26 1   
    13     7     8 1   
    14     7    27 1   
    15     7    28 1   
    16     8     9 1   
    17     8    29 1   
    18     8    30 1   
    19     9    10 1   
    20    10    11 1   
    21    10    31 1   
    22    10    32 1   
    23    11    12 1   
    24    11    33 1   
    25    11    34 1   
    26    12    13 1   
    27    13    14 ar  
    28    13    15 ar  
    29    14    21 ar  
    30    14    35 1   
    31    15    16 ar  
    32    15    36 1   
    33    16    17 1   
    34    16    20 ar  
    35    17    18 2   
    36    17    37 1   
    37    18    19 1   
    38    18    38 1   
    39    19    20 1   
    40    19    40 1   
    41    20    21 ar  
    42    21    39 1   
@<TRIPOS>SUBSTRUCTURE
     1 58Z         1 TEMP              0 ****  ****    0 ROOT
