@<TRIPOS>MOLECULE
58Z
   40    42     1     0     0
SMALL
bcc


@<TRIPOS>ATOM
      1 O21          5.8200     1.7030    -1.0690 o          1 58Z      -0.843300
      2 C19          5.2720     1.5170     0.0360 c          1 58Z       0.932600
      3 O20          5.4030     2.2370     1.0480 o          1 58Z      -0.843300
      4 C16          4.3770     0.2700     0.1870 c6         1 58Z      -0.188700
      5 C15          3.9360    -0.3420    -1.1350 c6         1 58Z      -0.052900
      6 C14          3.0600    -1.5640    -0.9090 c6         1 58Z       0.164300
      7 C17          3.1440     0.5290     1.0470 c6         1 58Z      -0.052900
      8 C18          2.2920    -0.7220     1.1920 c6         1 58Z       0.164300
      9 N13          1.8940    -1.2510    -0.1010 n3         1 58Z      -0.701600
     10 C12          1.0240    -2.4010     0.0170 c3         1 58Z       0.171800
     11 C11         -0.3610    -2.0830     0.5400 c3         1 58Z       0.145400
     12 O10         -0.9730    -1.1640    -0.3410 os         1 58Z      -0.296900
     13 C3          -2.2240    -0.7220    -0.0650 ca         1 58Z       0.123100
     14 C2          -2.9900    -1.1930     1.0190 ca         1 58Z      -0.187000
     15 C4          -2.7350     0.2400    -0.9230 ca         1 58Z      -0.122000
     16 C5          -4.0230     0.7340    -0.7030 ca         1 58Z      -0.060800
     17 C7          -4.8410     1.6990    -1.3690 cc         1 58Z      -0.194200
     18 C8          -6.0190     1.7580    -0.6790 cd         1 58Z      -0.118100
     19 N9          -5.9850     0.8940     0.3750 na         1 58Z      -0.182400
     20 C6          -4.7770     0.2490     0.3900 ca         1 58Z      -0.086200
     21 C1          -4.2670    -0.7120     1.2520 ca         1 58Z      -0.120000
     22 H16          4.9840    -0.4840     0.7150 hc         1 58Z       0.018700
     23 H15          3.3740     0.3970    -1.7160 hc         1 58Z       0.049450
     24 H15A         4.7980    -0.6310    -1.7380 hc         1 58Z       0.049450
     25 H14          2.7180    -1.9580    -1.8700 h1         1 58Z       0.007200
     26 H14A         3.6690    -2.3610    -0.4400 h1         1 58Z       0.007200
     27 H17          3.4360     0.8790     2.0380 hc         1 58Z       0.049450
     28 H17A         2.5390     1.3200     0.5920 hc         1 58Z       0.049450
     29 H18          2.8540    -1.4790     1.7710 h1         1 58Z       0.007200
     30 H18A         1.4030    -0.4790     1.7780 h1         1 58Z       0.007200
     31 H12          0.9230    -2.8580    -0.9720 h1         1 58Z       0.026700
     32 H12A         1.4480    -3.1820     0.6730 h1         1 58Z       0.026700
     33 H11         -0.9300    -3.0190     0.5950 h1         1 58Z       0.022200
     34 H11A        -0.3190    -1.6740     1.5560 h1         1 58Z       0.022200
     35 H2          -2.5950    -1.9440     1.6890 ha         1 58Z       0.130000
     36 H4          -2.1350     0.5980    -1.7510 ha         1 58Z       0.155000
     37 H7          -4.5910     2.2730    -2.2480 ha         1 58Z       0.154000
     38 H8          -6.8940     2.3610    -0.8630 h4         1 58Z       0.152000
     39 H1          -4.8430    -1.0860     2.0890 ha         1 58Z       0.121000
     40 HN9         -6.7370     0.7480     1.0260 hn         1 58Z       0.289700
@<TRIPOS>BOND
     1     1     2 1   
     2     2     3 1   
     3     2     4 1   
     4     4     5 1   
     5     4     7 1   
     6     4    22 1   
     7     5     6 1   
     8     5    23 1   
     9     5    24 1   
    10     6     9 1   
    11     6    25 1   
    12     6    26 1   
    13     7     8 1   
    14     7    27 1   
    15     7    28 1   
    16     8     9 1   
    17     8    29 1   
    18     8    30 1   
    19     9    10 1   
    20    10    11 1   
    21    10    31 1   
    22    10    32 1   
    23    11    12 1   
    24    11    33 1   
    25    11    34 1   
    26    12    13 1   
    27    13    14 ar  
    28    13    15 ar  
    29    14    21 ar  
    30    14    35 1   
    31    15    16 ar  
    32    15    36 1   
    33    16    17 1   
    34    16    20 ar  
    35    17    18 2   
    36    17    37 1   
    37    18    19 1   
    38    18    38 1   
    39    19    20 1   
    40    19    40 1   
    41    20    21 ar  
    42    21    39 1   
@<TRIPOS>SUBSTRUCTURE
     1 58Z         1 TEMP              0 ****  ****    0 ROOT
