@<TRIPOS>MOLECULE
590
   67    71     1     0     0
SMALL
abcg2


@<TRIPOS>ATOM
      1 CBI          3.9930     2.9270     0.5050 c5         1 590       0.093700
      2 NAU          4.4280     2.8190     1.8750 ns         1 590      -0.509900
      3 CBA          5.6470     3.3850     2.0990 c          1 590       0.614000
      4 OAC          6.2050     3.4930     3.1800 o          1 590      -0.578000
      5 NAT          6.1170     3.8100     0.9020 ns         1 590      -0.527900
      6 CBF          5.2390     3.5370    -0.2040 c5         1 590       0.105700
      7 CAO          5.7990     2.5070    -1.1920 c5         1 590       0.031600
      8 SAY          5.3140     0.8800    -0.5630 ss         1 590      -0.409000
      9 CBH          3.6820     1.5700    -0.1360 c5         1 590       0.074300
     10 CAK          2.8470     0.6400     0.7230 c3         1 590      -0.057400
     11 CAI          2.4300    -0.6330    -0.0020 c3         1 590      -0.081400
     12 CAH          1.4770    -1.4860     0.8240 c3         1 590      -0.064400
     13 CAJ          1.0080    -2.7050     0.0430 c3         1 590      -0.158400
     14 CAZ         -0.0970    -3.4650     0.7240 c          1 590       0.637100
     15 OAB         -0.3620    -3.4040     1.8970 o          1 590      -0.515100
     16 NAV         -0.8090    -4.2810    -0.1430 ns         1 590      -0.633300
     17 SBK         -2.1100    -5.2070     0.3030 s6         1 590       1.443500
     18 OAD         -2.5420    -5.8530    -0.9120 o          1 590      -0.535500
     19 OAE         -1.8320    -5.9650     1.4890 o          1 590      -0.535500
     20 OAW         -3.1760    -4.1300     0.7660 os         1 590      -0.555700
     21 CAN         -3.7270    -3.2120    -0.2020 c3         1 590       0.214600
     22 CBE         -3.7800    -1.8480     0.4300 c5         1 590       0.146300
     23 OAX         -2.4600    -1.3510     0.6110 os         1 590      -0.443000
     24 CAL         -4.4730    -0.8070    -0.4400 c5         1 590       0.155300
     25 OAL         -5.8560    -0.9140    -0.3210 oh         1 590      -0.699000
     26 CAM         -3.8710     0.4730     0.1320 c5         1 590       0.085500
     27 CBG         -2.4260     0.0390     0.4720 c5         1 590       0.306300
     28 N9          -1.4770     0.3910    -0.5580 na         1 590      -0.287300
     29 C8          -1.1720    -0.2790    -1.7110 cc         1 590       0.420700
     30 N7          -0.3350     0.3630    -2.4720 nd         1 590      -0.552100
     31 C5          -0.0820     1.5290    -1.7970 ca         1 590      -0.093600
     32 C4          -0.7890     1.5680    -0.6060 ca         1 590       0.125500
     33 N3          -0.7890     2.5500     0.2900 nb         1 590      -0.237000
     34 C2           0.0060     3.5410    -0.0760 ca         1 590       0.183900
     35 N1           0.7530     3.6370    -1.1730 nb         1 590      -0.309000
     36 C6           0.7390     2.6400    -2.0650 ca         1 590       0.450900
     37 N6           1.5070     2.7270    -3.1520 nv         1 590      -1.063900
     38 N5          -4.0320     3.7680    -0.0540 n1         1 590      -0.022000
     39 H1           3.1170     3.5780     0.4160 h1         1 590       0.072700
     40 H2           3.7720     2.7240     2.6320 hn         1 590       0.336500
     41 H3           7.0500     4.1660     0.7880 hn         1 590       0.343500
     42 H4           4.9890     4.4550    -0.7420 h1         1 590       0.068700
     43 H5           5.3660     2.6630    -2.1820 h1         1 590       0.074200
     44 H6           6.8820     2.5720    -1.2850 h1         1 590       0.074200
     45 H7           3.1550     1.7610    -1.0770 h1         1 590       0.069700
     46 H8           3.3880     0.3920     1.6400 hc         1 590       0.055700
     47 H9           1.9470     1.1840     1.0350 hc         1 590       0.055700
     48 H10          1.9510    -0.3680    -0.9490 hc         1 590       0.048200
     49 H11          3.3170    -1.2200    -0.2640 hc         1 590       0.048200
     50 H12          1.9640    -1.7960     1.7510 hc         1 590       0.056700
     51 H13          0.6120    -0.8850     1.1180 hc         1 590       0.056700
     52 H14          0.6810    -2.4080    -0.9580 hc         1 590       0.064700
     53 H15          1.8380    -3.4030    -0.1140 hc         1 590       0.064700
     54 H16         -0.5390    -4.3480    -1.1170 hn         1 590       0.343500
     55 H17         -3.1290    -3.1860    -1.1160 h1         1 590       0.065200
     56 H18         -4.7310    -3.5500    -0.4570 h1         1 590       0.065200
     57 H19         -4.2970    -1.9070     1.3970 h1         1 590       0.101700
     58 H20         -4.1490    -0.9190    -1.4860 h1         1 590       0.059700
     59 H21         -6.2700    -0.4340    -1.0450 ho         1 590       0.528000
     60 H22         -4.3860     0.7130     1.0680 h1         1 590       0.083700
     61 N8Q         -3.9540     1.5600    -0.8230 n2         1 590      -0.442200
     62 H24         -2.0820     0.5190     1.3910 h2         1 590       0.113700
     63 H25         -1.5830    -1.2510    -1.9380 h5         1 590       0.063800
     64 H26          0.0610     4.3860     0.6020 h5         1 590       0.050100
     65 H27          1.4910     2.0130    -3.8580 hn         1 590       0.509500
     66 H28          2.0470     3.5570    -3.3250 hn         1 590       0.509500
     67 N2          -3.9890     2.6920    -0.3640 n1         1 590       0.240000
@<TRIPOS>BOND
     1     1     2 1   
     2     1     6 1   
     3     1     9 1   
     4     1    39 1   
     5     2     3 1   
     6     2    40 1   
     7     3     4 2   
     8     3     5 1   
     9     5     6 1   
    10     5    41 1   
    11     6     7 1   
    12     6    42 1   
    13     7     8 1   
    14     7    43 1   
    15     7    44 1   
    16     8     9 1   
    17     9    10 1   
    18     9    45 1   
    19    10    11 1   
    20    10    46 1   
    21    10    47 1   
    22    11    12 1   
    23    11    48 1   
    24    11    49 1   
    25    12    13 1   
    26    12    50 1   
    27    12    51 1   
    28    13    14 1   
    29    13    52 1   
    30    13    53 1   
    31    14    15 2   
    32    14    16 1   
    33    16    17 1   
    34    16    54 1   
    35    17    18 2   
    36    17    19 2   
    37    17    20 1   
    38    20    21 1   
    39    21    22 1   
    40    21    55 1   
    41    21    56 1   
    42    22    23 1   
    43    22    24 1   
    44    22    57 1   
    45    23    27 1   
    46    24    25 1   
    47    24    26 1   
    48    24    58 1   
    49    25    59 1   
    50    26    27 1   
    51    26    60 1   
    52    26    61 1   
    53    27    28 1   
    54    27    62 1   
    55    28    29 1   
    56    28    32 1   
    57    29    30 2   
    58    29    63 1   
    59    30    31 1   
    60    31    32 ar  
    61    31    36 ar  
    62    32    33 ar  
    63    33    34 ar  
    64    34    35 ar  
    65    34    64 1   
    66    35    36 ar  
    67    36    37 1   
    68    37    65 1   
    69    37    66 1   
    70    38    67 3   
    71    61    67 1   
@<TRIPOS>SUBSTRUCTURE
     1 590         1 TEMP              0 ****  ****    0 ROOT
