@<TRIPOS>MOLECULE
590
   67    71     1     0     0
SMALL
No Charge or Current Charge


@<TRIPOS>ATOM
      1 CBI          3.9020     2.5350    -0.5170 c5         1 590       0.093700
      2 NAU          3.5940     2.9500     0.8570 ns         1 590      -0.509900
      3 CBA          4.6020     3.6350     1.4410 c          1 590       0.614000
      4 OAC          4.5810     4.0910     2.5670 o          1 590      -0.578000
      5 NAT          5.6300     3.7490     0.5700 ns         1 590      -0.527900
      6 CBF          5.3900     3.0480    -0.6940 c5         1 590       0.105700
      7 CAO          6.3520     1.8120    -0.6550 c5         1 590       0.031600
      8 SAY          5.4940     0.4950     0.3230 ss         1 590      -0.409000
      9 CBH          3.9260     0.9650    -0.5420 c5         1 590       0.074300
     10 CAK          2.6900     0.2500     0.0680 c3         1 590      -0.057400
     11 CAI          2.7060    -1.2890    -0.0900 c3         1 590      -0.081400
     12 CAH          1.4600    -1.9750     0.5100 c3         1 590      -0.064400
     13 CAJ          1.5420    -3.5210     0.4510 c3         1 590      -0.158400
     14 CAZ          0.3170    -4.1710     1.0970 c          1 590       0.637100
     15 OAB          0.1450    -4.1660     2.3050 o          1 590      -0.515100
     16 NAV         -0.5300    -4.7690     0.2250 ns         1 590      -0.633300
     17 SBK         -2.0400    -5.3700     0.5520 s6         1 590       1.443500
     18 OAD         -2.6010    -5.8670    -0.7070 o          1 590      -0.535500
     19 OAE         -1.9730    -6.2170     1.7470 o          1 590      -0.535500
     20 OAW         -2.7570    -3.9490     0.9470 os         1 590      -0.555700
     21 CAN         -3.2570    -3.1560    -0.1450 c3         1 590       0.214600
     22 CBE         -3.4940    -1.7190     0.3750 c5         1 590       0.146300
     23 OAX         -2.2410    -0.9880     0.4230 os         1 590      -0.443000
     24 CAL         -4.3730    -0.8350    -0.5510 c5         1 590       0.155300
     25 OAL         -5.7650    -1.1810    -0.5240 oh         1 590      -0.699000
     26 CAM         -4.0830     0.5400     0.1100 c5         1 590       0.085500
     27 CBG         -2.5370     0.4290     0.4120 c5         1 590       0.306300
     28 N9          -1.5930     1.0840    -0.4970 na         1 590      -0.287300
     29 C8          -1.5170     0.8700    -1.8770 cc         1 590       0.420700
     30 N7          -0.7210     1.7750    -2.4770 nd         1 590      -0.552100
     31 C5          -0.3060     2.5850    -1.4170 ca         1 590      -0.093600
     32 C4          -0.8190     2.1730    -0.2140 ca         1 590       0.125500
     33 N3          -0.5660     2.8270     0.9370 nb         1 590      -0.237000
     34 C2           0.2260     3.9210     0.8280 ca         1 590       0.183900
     35 N1           0.7770     4.4130    -0.3080 nb         1 590      -0.309000
     36 C6           0.5100     3.7340    -1.4340 ca         1 590       0.450900
     37 N6           1.0490     4.2340    -2.5770 nv         1 590      -1.063900
     38 N5          -4.1540     3.8550    -0.1130 n1         1 590      -0.022000
     39 H1           3.2140     2.9640    -1.2560 h1         1 590       0.072700
     40 H2           2.7410     2.7800     1.3720 hn         1 590       0.336500
     41 H3           6.4720     4.2330     0.8530 hn         1 590       0.343500
     42 H4           5.5370     3.6850    -1.5770 h1         1 590       0.068700
     43 H5           6.5220     1.4320    -1.6710 h1         1 590       0.074200
     44 H6           7.3330     2.0490    -0.2220 h1         1 590       0.074200
     45 H7           4.0130     0.6340    -1.5860 h1         1 590       0.069700
     46 H8           2.6060     0.4870     1.1360 hc         1 590       0.055700
     47 H9           1.7810     0.6380    -0.4080 hc         1 590       0.055700
     48 H10          2.7820    -1.5430    -1.1540 hc         1 590       0.048200
     49 H11          3.6010    -1.6930     0.3990 hc         1 590       0.048200
     50 H12          1.3450    -1.6610     1.5550 hc         1 590       0.056700
     51 H13          0.5640    -1.6350    -0.0250 hc         1 590       0.056700
     52 H14          1.6290    -3.8300    -0.5980 hc         1 590       0.064700
     53 H15          2.4330    -3.8420     1.0030 hc         1 590       0.064700
     54 H16         -0.3510    -4.7350    -0.7620 hn         1 590       0.343500
     55 H17         -2.5440    -3.1070    -0.9800 h1         1 590       0.065200
     56 H18         -4.2020    -3.5700    -0.5210 h1         1 590       0.065200
     57 H19         -3.9250    -1.7730     1.3850 h1         1 590       0.101700
     58 H20         -3.9900    -0.8690    -1.5810 h1         1 590       0.059700
     59 H21         -6.2420    -0.4640    -1.0060 ho         1 590       0.528000
     60 H22         -4.6520     0.6640     1.0430 h1         1 590       0.083700
     61 N8Q         -4.4150     1.6180    -0.8720 n2         1 590      -0.442200
     62 H24         -2.3380     0.8520     1.4060 h2         1 590       0.113700
     63 H25         -2.0590     0.0730    -2.3720 h5         1 590       0.063800
     64 H26          0.4380     4.4630     1.7490 h5         1 590       0.050100
     65 H27          0.6680     3.8740    -3.4490 hn         1 590       0.509500
     66 H28          1.3410     5.2070    -2.5810 hn         1 590       0.509500
     67 N2          -4.3520     2.7900    -0.4600 n1         1 590       0.240000
@<TRIPOS>BOND
     1     1     2 1   
     2     1     6 1   
     3     1     9 1   
     4     1    39 1   
     5     2     3 1   
     6     2    40 1   
     7     3     4 2   
     8     3     5 1   
     9     5     6 1   
    10     5    41 1   
    11     6     7 1   
    12     6    42 1   
    13     7     8 1   
    14     7    43 1   
    15     7    44 1   
    16     8     9 1   
    17     9    10 1   
    18     9    45 1   
    19    10    11 1   
    20    10    46 1   
    21    10    47 1   
    22    11    12 1   
    23    11    48 1   
    24    11    49 1   
    25    12    13 1   
    26    12    50 1   
    27    12    51 1   
    28    13    14 1   
    29    13    52 1   
    30    13    53 1   
    31    14    15 2   
    32    14    16 1   
    33    16    17 1   
    34    16    54 1   
    35    17    18 2   
    36    17    19 2   
    37    17    20 1   
    38    20    21 1   
    39    21    22 1   
    40    21    55 1   
    41    21    56 1   
    42    22    23 1   
    43    22    24 1   
    44    22    57 1   
    45    23    27 1   
    46    24    25 1   
    47    24    26 1   
    48    24    58 1   
    49    25    59 1   
    50    26    27 1   
    51    26    60 1   
    52    26    61 1   
    53    27    28 1   
    54    27    62 1   
    55    28    29 1   
    56    28    32 1   
    57    29    30 2   
    58    29    63 1   
    59    30    31 1   
    60    31    32 ar  
    61    31    36 ar  
    62    32    33 ar  
    63    33    34 ar  
    64    34    35 ar  
    65    34    64 1   
    66    35    36 ar  
    67    36    37 1   
    68    37    65 1   
    69    37    66 1   
    70    38    67 3   
    71    61    67 1   
@<TRIPOS>SUBSTRUCTURE
     1 590         1 TEMP              0 ****  ****    0 ROOT
