@<TRIPOS>MOLECULE
591
   46    49     1     0     0
SMALL
No Charge or Current Charge


@<TRIPOS>ATOM
      1 C1          -3.8440    -4.0780     1.1190 c3         1 591      -0.111100
      2 N1          -2.1420    -2.6380    -0.0430 na         1 591       0.127800
      3 O1          -0.3970     1.8070    -2.3790 o          1 591      -0.505000
      4 C2          -2.3870    -3.9190     0.6420 c3         1 591       0.088600
      5 N2          -2.1590    -2.5720    -1.4260 nc         1 591      -0.528800
      6 C3          -1.8810    -1.4180     0.5750 cc         1 591      -0.126000
      7 N3          -2.3270     2.6550    -1.3900 n          1 591      -0.383300
      8 C4          -1.7320    -0.5570    -0.4790 cd         1 591      -0.213300
      9 N4          -2.6690     1.3880     0.4650 n2         1 591      -0.703900
     10 C5          -1.9080    -1.2980    -1.6630 cd         1 591       0.253900
     11 C6          -1.4120     0.9120    -0.2220 c5         1 591       0.209800
     12 N6           4.8450    -1.0970    -1.5230 nb         1 591      -0.173000
     13 C7          -1.2410     1.8130    -1.4890 c          1 591       0.554000
     14 N7           5.5600    -1.5940     0.7240 nb         1 591      -0.173000
     15 C8          -3.0670     2.3400    -0.2720 c2         1 591       0.675800
     16 C9          -2.6310     3.6880    -2.4050 c3         1 591       0.094300
     17 C10         -0.1320     0.9040     0.6380 ca         1 591      -0.066300
     18 C11         -0.0890     1.5120     1.9120 ca         1 591      -0.080000
     19 C12          1.0910     1.4920     2.6730 ca         1 591      -0.119000
     20 C13          2.2440     0.8690     2.1730 ca         1 591      -0.092000
     21 C14          2.2440     0.2540     0.8980 cp         1 591      -0.041000
     22 C15          1.0410     0.2870     0.1480 ca         1 591      -0.067000
     23 C16          3.4740    -0.4100     0.3580 cp         1 591      -0.130000
     24 C17          3.7390    -0.5000    -1.0330 ca         1 591       0.111900
     25 C18          5.7000    -1.6150    -0.6180 ca         1 591       0.112900
     26 C19          4.4530    -0.9930     1.2050 ca         1 591       0.111900
     27 H1          -4.5350    -4.0350     0.2680 hc         1 591       0.049700
     28 H1A         -3.9770    -5.0430     1.6230 hc         1 591       0.049700
     29 H1B         -4.1100    -3.2810     1.8240 hc         1 591       0.049700
     30 H2          -1.7140    -3.9840     1.5060 h1         1 591       0.061200
     31 H2A         -2.1360    -4.7400    -0.0400 h1         1 591       0.061200
     32 H3          -1.8300    -1.2800     1.6470 h4         1 591       0.165000
     33 H5          -1.8560    -0.9460    -2.6870 h4         1 591       0.048100
     34 HN5         -4.5000     2.9280     0.9250 hn         1 591       0.489000
     35 HN5A        -4.0500     4.0660    -0.2530 hn         1 591       0.489000
     36 H9          -3.6870     3.6250    -2.6970 h1         1 591       0.050700
     37 H9A         -2.4290     4.6840    -1.9910 h1         1 591       0.050700
     38 H9B         -2.0140     3.5460    -3.3010 h1         1 591       0.050700
     39 H11         -0.9680     2.0020     2.3220 ha         1 591       0.125000
     40 H12          1.1110     1.9640     3.6520 ha         1 591       0.114000
     41 H13          3.1480     0.8780     2.7770 ha         1 591       0.114000
     42 H15          1.0110    -0.1900    -0.8280 ha         1 591       0.129000
     43 H17          3.0610    -0.0730    -1.7700 h4         1 591       0.029600
     44 H18          6.5930    -2.0980    -1.0090 h5         1 591       0.049100
     45 H19          4.3420    -0.9920     2.2870 h4         1 591       0.029600
     46 N5          -4.1560     3.0890    -0.0140 nv         1 591      -1.033200
@<TRIPOS>BOND
     1     1     4 1   
     2     1    27 1   
     3     1    28 1   
     4     1    29 1   
     5     2     4 1   
     6     2     5 1   
     7     2     6 1   
     8     3    13 2   
     9     4    30 1   
    10     4    31 1   
    11     5    10 2   
    12     6     8 2   
    13     6    32 1   
    14     7    13 1   
    15     7    15 1   
    16     7    16 1   
    17     8    10 1   
    18     8    11 1   
    19     9    11 1   
    20     9    15 2   
    21    10    33 1   
    22    11    13 1   
    23    11    17 1   
    24    12    24 ar  
    25    12    25 ar  
    26    14    25 ar  
    27    14    26 ar  
    28    15    46 1   
    29    16    36 1   
    30    16    37 1   
    31    16    38 1   
    32    17    18 ar  
    33    17    22 ar  
    34    18    19 ar  
    35    18    39 1   
    36    19    20 ar  
    37    19    40 1   
    38    20    21 ar  
    39    20    41 1   
    40    21    22 ar  
    41    21    23 1   
    42    22    42 1   
    43    23    24 ar  
    44    23    26 ar  
    45    24    43 1   
    46    25    44 1   
    47    26    45 1   
    48    34    46 1   
    49    35    46 1   
@<TRIPOS>SUBSTRUCTURE
     1 591         1 TEMP              0 ****  ****    0 ROOT
