@<TRIPOS>MOLECULE
591
   46    49     1     0     0
SMALL
bcc


@<TRIPOS>ATOM
      1 C1          -4.4000    -4.1110    -0.0570 c3         1 591      -0.111100
      2 N1          -2.3950    -2.7170     0.2750 na         1 591       0.106400
      3 O1          -0.6030     1.3000    -2.1720 o          1 591      -0.580500
      4 C2          -3.1480    -3.8560     0.7640 c3         1 591       0.059300
      5 N2          -1.7140    -2.8060    -0.8610 nc         1 591      -0.528800
      6 C3          -2.3660    -1.4790     0.7930 cc         1 591      -0.093300
      7 N3          -2.3380     2.3650    -1.1050 n          1 591      -0.450300
      8 C4          -1.6030    -0.7050    -0.0540 cd         1 591      -0.278600
      9 N4          -2.3240     1.3800     0.9270 n2         1 591      -0.703900
     10 C5          -1.2230    -1.5980    -1.0740 cd         1 591       0.319200
     11 C6          -1.2820     0.7520     0.1470 c5         1 591       0.209800
     12 N6           4.8030    -1.1400    -1.6380 nb         1 591      -0.699000
     13 C7          -1.3150     1.4720    -1.2110 c          1 591       0.696500
     14 N7           5.7010    -1.3750     0.5320 nb         1 591      -0.699000
     15 C8          -2.8830     2.2510     0.1710 c2         1 591       0.675800
     16 C9          -2.7710     3.2720    -2.1410 c3         1 591       0.094300
     17 C10          0.0970     0.9640     0.7640 ca         1 591      -0.066300
     18 C11          0.2780     1.8610     1.8100 ca         1 591      -0.098000
     19 C12          1.5440     2.0660     2.3450 ca         1 591      -0.137000
     20 C13          2.6400     1.3910     1.8380 ca         1 591      -0.110000
     21 C14          2.4760     0.4910     0.7850 cp         1 591      -0.041000
     22 C15          1.2010     0.2840     0.2630 ca         1 591      -0.085000
     23 C16          3.6290    -0.2340     0.2300 cp         1 591      -0.260600
     24 C17          3.7700    -0.4820    -1.1330 ca         1 591       0.440200
     25 C18          5.7210    -1.5550    -0.7790 ca         1 591       0.638900
     26 C19          4.6600    -0.7220     1.0280 ca         1 591       0.440200
     27 H1          -4.1520    -4.3170    -1.0980 hc         1 591       0.049700
     28 H1A         -4.9320    -4.9750     0.3400 hc         1 591       0.049700
     29 H1B         -5.0720    -3.2540    -0.0230 hc         1 591       0.049700
     30 H2          -3.4030    -3.6510     1.8020 h1         1 591       0.061200
     31 H2A         -2.4910    -4.7250     0.7530 h1         1 591       0.061200
     32 H3          -2.8780    -1.2280     1.7080 h4         1 591       0.183000
     33 H5          -0.6240    -1.4050    -1.9510 h4         1 591       0.048100
     34 HN5         -4.2310     3.0020     1.4550 hn         1 591       0.433800
     35 HN5A        -4.1450     3.8490    -0.0130 hn         1 591       0.433800
     36 H9          -3.8210     3.1110    -2.3820 h1         1 591       0.050700
     37 H9A         -2.6230     4.3090    -1.8410 h1         1 591       0.050700
     38 H9B         -2.1790     3.0850    -3.0330 h1         1 591       0.050700
     39 H11         -0.5710     2.3930     2.2160 ha         1 591       0.143000
     40 H12          1.6730     2.7650     3.1620 ha         1 591       0.132000
     41 H13          3.6240     1.5770     2.2500 ha         1 591       0.132000
     42 H15          1.0690    -0.4450    -0.5250 ha         1 591       0.147000
     43 H17          3.0290    -0.1220    -1.8400 h4         1 591       0.029600
     44 H18          6.5690    -2.0930    -1.1880 h5         1 591       0.049100
     45 H19          4.6340    -0.5910     2.1040 h4         1 591       0.029600
     46 N5          -3.9560     2.9960     0.4870 nv         1 591      -0.922800
@<TRIPOS>BOND
     1     1     4 1   
     2     1    27 1   
     3     1    28 1   
     4     1    29 1   
     5     2     4 1   
     6     2     5 1   
     7     2     6 1   
     8     3    13 2   
     9     4    30 1   
    10     4    31 1   
    11     5    10 2   
    12     6     8 2   
    13     6    32 1   
    14     7    13 1   
    15     7    15 1   
    16     7    16 1   
    17     8    10 1   
    18     8    11 1   
    19     9    11 1   
    20     9    15 2   
    21    10    33 1   
    22    11    13 1   
    23    11    17 1   
    24    12    24 ar  
    25    12    25 ar  
    26    14    25 ar  
    27    14    26 ar  
    28    15    46 1   
    29    16    36 1   
    30    16    37 1   
    31    16    38 1   
    32    17    18 ar  
    33    17    22 ar  
    34    18    19 ar  
    35    18    39 1   
    36    19    20 ar  
    37    19    40 1   
    38    20    21 ar  
    39    20    41 1   
    40    21    22 ar  
    41    21    23 1   
    42    22    42 1   
    43    23    24 ar  
    44    23    26 ar  
    45    24    43 1   
    46    25    44 1   
    47    26    45 1   
    48    34    46 1   
    49    35    46 1   
@<TRIPOS>SUBSTRUCTURE
     1 591         1 TEMP              0 ****  ****    0 ROOT
