@<TRIPOS>MOLECULE
592
   68    72     1     0     0
SMALL
No Charge or Current Charge


@<TRIPOS>ATOM
      1 C20          7.1730     1.8150    -1.9950 c3         1 592      -0.040800
      2 C13          7.1060     1.0350    -0.6750 ca         1 592      -0.057300
      3 C14          8.2820     0.9040     0.1130 ca         1 592       0.133100
      4 O2           9.4670     1.4430    -0.3580 os         1 592      -0.341100
      5 C19         10.7060     1.3590     0.3700 c3         1 592       0.148900
      6 C15          8.2320     0.2330     1.3530 ca         1 592      -0.183000
      7 C16          7.0270    -0.3090     1.8120 ca         1 592      -0.081000
      8 C1           5.8660    -0.1950     1.0390 ca         1 592      -0.130000
      9 C12          5.8780     0.4680    -0.2140 ca         1 592      -0.118600
     10 C10          4.5880     0.5340    -1.0250 c          1 592       0.608700
     11 O1           4.5560     0.5910    -2.2460 o          1 592      -0.594100
     12 N1           3.4220     0.4600    -0.2930 ns         1 592      -0.506900
     13 C4           2.0580     0.4610    -0.8410 c6         1 592       0.124700
     14 C5           1.6640    -0.9380    -1.4120 c6         1 592      -0.115900
     15 C3           1.0300     0.9510     0.2250 c6         1 592      -0.115900
     16 C2           0.4880    -0.1840     1.1430 c5         1 592       0.222000
     17 C8           1.5800    -0.9950     1.9030 c5         1 592      -0.079400
     18 C7           1.9840    -2.1350     0.9010 c5         1 592      -0.079400
     19 C6           1.0720    -1.9000    -0.3420 c5         1 592       0.222000
     20 N4          -0.0730    -1.2770     0.3350 nh         1 592      -0.764300
     21 C21         -1.3980    -1.3050    -0.1460 ca         1 592       0.640900
     22 C26         -1.7830    -2.0390    -1.2800 ca         1 592      -0.242000
     23 C25         -3.1220    -2.0190    -1.6900 ca         1 592       0.017000
     24 N2          -2.2730    -0.5810     0.5710 nb         1 592      -0.763000
     25 C23         -3.5620    -0.5620     0.1770 ca         1 592       0.415900
     26 C24         -4.0400    -1.2600    -0.9440 ca         1 592      -0.274600
     27 C27         -5.4840    -1.2080    -1.3450 c          1 592       0.630700
     28 O3          -5.9040    -1.8150    -2.3190 o          1 592      -0.607100
     29 N3          -6.3240    -0.4440    -0.5680 ns         1 592      -0.506900
     30 C11         -7.7540    -0.2840    -0.8160 c3         1 592       0.144300
     31 C17         -8.3860     0.6250     0.2260 ca         1 592      -0.110300
     32 C18         -8.4480     2.0160     0.0120 ca         1 592      -0.098000
     33 C22         -9.0280     2.8560     0.9780 ca         1 592      -0.111500
     34 C28         -9.5480     2.3110     2.1640 ca         1 592      -0.106000
     35 C9          -9.4860     0.9250     2.3840 ca         1 592      -0.111500
     36 C29         -8.9070     0.0840     1.4180 ca         1 592      -0.098000
     37 H201         7.1580     1.1340    -2.8540 hc         1 592       0.050700
     38 H202         6.3270     2.5060    -2.0920 hc         1 592       0.050700
     39 H203         8.0730     2.4330    -2.0880 hc         1 592       0.050700
     40 H15          9.1150     0.1200     1.9740 ha         1 592       0.119000
     41 H191        10.6200     1.8530     1.3460 h1         1 592       0.041700
     42 H192        10.9960     0.3120     0.5280 h1         1 592       0.041700
     43 H193        11.5100     1.8530    -0.1900 h1         1 592       0.041700
     44 H16          6.9950    -0.8290     2.7670 ha         1 592       0.115000
     45 H1           4.9600    -0.6590     1.4200 ha         1 592       0.117000
     46 HA           3.5320     0.4370     0.7110 hn         1 592       0.317500
     47 H4           2.0550     1.1850    -1.6700 h1         1 592       0.066700
     48 H51C         0.9110    -0.7950    -2.1980 hc         1 592       0.063950
     49 H52C         2.5240    -1.4090    -1.9040 hc         1 592       0.063950
     50 H31C         1.4620     1.7570     0.8330 hc         1 592       0.063950
     51 H32C         0.1740     1.4000    -0.2970 hc         1 592       0.063950
     52 H6           0.8290    -2.8640    -0.8130 h1         1 592       0.084700
     53 H2          -0.2300     0.2460     1.8570 h1         1 592       0.084700
     54 H81C         2.4250    -0.3740     2.2160 hc         1 592       0.052200
     55 H82C         1.1610    -1.4300     2.8180 hc         1 592       0.052200
     56 H71C         3.0490    -2.1250     0.6430 hc         1 592       0.052200
     57 H72C         1.7830    -3.1170     1.3430 hc         1 592       0.052200
     58 H26         -1.0630    -2.6170    -1.8460 ha         1 592       0.127000
     59 H25         -3.4330    -2.5820    -2.5690 ha         1 592       0.136000
     60 H23         -4.2230     0.0430     0.7960 h4         1 592       0.014100
     61 H3          -5.9240     0.0370     0.2260 hn         1 592       0.313500
     62 H111        -7.8990     0.1400    -1.8190 h1         1 592       0.062200
     63 H112        -8.2350    -1.2710    -0.7920 h1         1 592       0.062200
     64 H18         -8.0450     2.4460    -0.9030 ha         1 592       0.115500
     65 H29         -8.8610    -0.9890     1.5970 ha         1 592       0.115500
     66 H22         -9.0730     3.9300     0.8080 ha         1 592       0.113000
     67 H28         -9.9960     2.9620     2.9120 ha         1 592       0.113000
     68 H9          -9.8870     0.5020     3.3030 ha         1 592       0.113000
@<TRIPOS>BOND
     1     1     2 1   
     2     1    37 1   
     3     1    38 1   
     4     1    39 1   
     5     2     3 ar  
     6     2     9 ar  
     7     3     4 1   
     8     3     6 ar  
     9     4     5 1   
    10     5    41 1   
    11     5    42 1   
    12     5    43 1   
    13     6     7 ar  
    14     6    40 1   
    15     7     8 ar  
    16     7    44 1   
    17     8     9 ar  
    18     8    45 1   
    19     9    10 1   
    20    10    11 2   
    21    10    12 1   
    22    12    13 1   
    23    12    46 1   
    24    13    14 1   
    25    13    15 1   
    26    13    47 1   
    27    14    19 1   
    28    14    48 1   
    29    14    49 1   
    30    15    16 1   
    31    15    50 1   
    32    15    51 1   
    33    16    17 1   
    34    16    20 1   
    35    16    53 1   
    36    17    18 1   
    37    17    54 1   
    38    17    55 1   
    39    18    19 1   
    40    18    56 1   
    41    18    57 1   
    42    19    20 1   
    43    19    52 1   
    44    20    21 1   
    45    21    22 ar  
    46    21    24 ar  
    47    22    23 ar  
    48    22    58 1   
    49    23    26 ar  
    50    23    59 1   
    51    24    25 ar  
    52    25    26 ar  
    53    25    60 1   
    54    26    27 1   
    55    27    28 2   
    56    27    29 1   
    57    29    30 1   
    58    29    61 1   
    59    30    31 1   
    60    30    62 1   
    61    30    63 1   
    62    31    32 ar  
    63    31    36 ar  
    64    32    33 ar  
    65    32    64 1   
    66    33    34 ar  
    67    33    66 1   
    68    34    35 ar  
    69    34    67 1   
    70    35    36 ar  
    71    35    68 1   
    72    36    65 1   
@<TRIPOS>SUBSTRUCTURE
     1 592         1 TEMP              0 ****  ****    0 ROOT
