@<TRIPOS>MOLECULE
592
   68    72     1     0     0
SMALL
abcg2


@<TRIPOS>ATOM
      1 C20          6.3860     2.3580    -1.4450 c3         1 592      -0.040800
      2 C13          6.6800     1.1630    -0.5820 ca         1 592      -0.057300
      3 C14          7.9220     1.0930     0.0740 ca         1 592       0.133100
      4 O2           8.7540     2.1260    -0.1560 os         1 592      -0.341100
      5 C19         10.0140     2.1460     0.4840 c3         1 592       0.148900
      6 C15          8.2380     0.0200     0.9010 ca         1 592      -0.183000
      7 C16          7.3120    -0.9960     1.0950 ca         1 592      -0.081000
      8 C1           6.0790    -0.9420     0.4740 ca         1 592      -0.130000
      9 C12          5.7720     0.1300    -0.3660 ca         1 592      -0.118600
     10 C10          4.4460     0.1050    -1.0680 c          1 592       0.608700
     11 O1           4.3540     0.0600    -2.2870 o          1 592      -0.594100
     12 N1           3.3880     0.0970    -0.2430 ns         1 592      -0.506900
     13 C4           2.0070     0.0880    -0.7110 c6         1 592       0.124700
     14 C5           1.5750    -1.2880    -1.2470 c6         1 592      -0.115900
     15 C3           1.0760     0.5880     0.4050 c6         1 592      -0.115900
     16 C2           0.5870    -0.5210     1.3430 c5         1 592       0.222000
     17 C8           1.7030    -1.3320     2.0110 c5         1 592      -0.079400
     18 C7           2.0380    -2.4420     0.9930 c5         1 592      -0.079400
     19 C6           1.0440    -2.2180    -0.1550 c5         1 592       0.222000
     20 N4          -0.0540    -1.5470     0.5290 nh         1 592      -0.764300
     21 C21         -1.3200    -1.4520     0.0650 ca         1 592       0.640900
     22 C26         -1.8110    -2.3070    -0.9500 ca         1 592      -0.242000
     23 C25         -3.1270    -2.2010    -1.3190 ca         1 592       0.017000
     24 N2          -2.1110    -0.5390     0.6400 nb         1 592      -0.763000
     25 C23         -3.3720    -0.4480     0.2540 ca         1 592       0.415900
     26 C24         -3.9550    -1.2410    -0.7250 ca         1 592      -0.274600
     27 C27         -5.3840    -1.1620    -1.1140 c          1 592       0.630700
     28 O3          -5.9650    -2.1320    -1.5850 o          1 592      -0.607100
     29 N3          -5.9860     0.0270    -0.9090 ns         1 592      -0.506900
     30 C11         -7.3820     0.2830    -1.1760 c3         1 592       0.144300
     31 C17         -8.0200     1.0760    -0.0640 ca         1 592      -0.110300
     32 C18         -8.7720     2.2110    -0.3440 ca         1 592      -0.098000
     33 C22         -9.3850     2.9260     0.6790 ca         1 592      -0.111500
     34 C28         -9.2450     2.5140     1.9960 ca         1 592      -0.106000
     35 C9          -8.4910     1.3820     2.2850 ca         1 592      -0.111500
     36 C29         -7.8830     0.6690     1.2630 ca         1 592      -0.098000
     37 H201         7.0560     2.3970    -2.3050 hc         1 592       0.050700
     38 H202         5.3690     2.3570    -1.8250 hc         1 592       0.050700
     39 H203         6.5300     3.2850    -0.8890 hc         1 592       0.050700
     40 H15          9.1950    -0.0370     1.4020 ha         1 592       0.119000
     41 H191         9.9180     2.1570     1.5730 h1         1 592       0.041700
     42 H192        10.6350     1.2950     0.1930 h1         1 592       0.041700
     43 H193        10.5050     3.0620     0.1670 h1         1 592       0.041700
     44 H16          7.5620    -1.8300     1.7370 ha         1 592       0.115000
     45 H1           5.3610    -1.7390     0.6240 ha         1 592       0.117000
     46 HA           3.5640     0.2530     0.7350 hn         1 592       0.317500
     47 H4           1.9480     0.8000    -1.5380 h1         1 592       0.066700
     48 H51C         0.7850    -1.1370    -1.9900 hc         1 592       0.063950
     49 H52C         2.4020    -1.7630    -1.7770 hc         1 592       0.063950
     50 H31C         1.5640     1.3850     0.9710 hc         1 592       0.063950
     51 H32C         0.1960     1.0390    -0.0590 hc         1 592       0.063950
     52 H6           0.7260    -3.1640    -0.5930 h1         1 592       0.084700
     53 H2          -0.1090    -0.1030     2.0670 h1         1 592       0.084700
     54 H81C         2.5570    -0.7190     2.3000 hc         1 592       0.052200
     55 H82C         1.3220    -1.7720     2.9330 hc         1 592       0.052200
     56 H71C         3.0670    -2.4150     0.6410 hc         1 592       0.052200
     57 H72C         1.8770    -3.4240     1.4360 hc         1 592       0.052200
     58 H26         -1.1730    -3.0360    -1.4270 ha         1 592       0.127000
     59 H25         -3.5220    -2.8570    -2.0840 ha         1 592       0.136000
     60 H23         -3.9600     0.2960     0.7850 h4         1 592       0.014100
     61 H3          -5.4140     0.8300    -0.7040 hn         1 592       0.313500
     62 H111        -7.5030     0.8120    -2.1260 h1         1 592       0.062200
     63 H112        -7.8830    -0.6780    -1.2870 h1         1 592       0.062200
     64 H18         -8.8830     2.5420    -1.3700 ha         1 592       0.115500
     65 H29         -7.2970    -0.2110     1.4980 ha         1 592       0.115500
     66 H22         -9.9660     3.8080     0.4440 ha         1 592       0.113000
     67 H28         -9.7170     3.0720     2.7940 ha         1 592       0.113000
     68 H9          -8.3780     1.0540     3.3100 ha         1 592       0.113000
@<TRIPOS>BOND
     1     1     2 1   
     2     1    37 1   
     3     1    38 1   
     4     1    39 1   
     5     2     3 ar  
     6     2     9 ar  
     7     3     4 1   
     8     3     6 ar  
     9     4     5 1   
    10     5    41 1   
    11     5    42 1   
    12     5    43 1   
    13     6     7 ar  
    14     6    40 1   
    15     7     8 ar  
    16     7    44 1   
    17     8     9 ar  
    18     8    45 1   
    19     9    10 1   
    20    10    11 2   
    21    10    12 1   
    22    12    13 1   
    23    12    46 1   
    24    13    14 1   
    25    13    15 1   
    26    13    47 1   
    27    14    19 1   
    28    14    48 1   
    29    14    49 1   
    30    15    16 1   
    31    15    50 1   
    32    15    51 1   
    33    16    17 1   
    34    16    20 1   
    35    16    53 1   
    36    17    18 1   
    37    17    54 1   
    38    17    55 1   
    39    18    19 1   
    40    18    56 1   
    41    18    57 1   
    42    19    20 1   
    43    19    52 1   
    44    20    21 1   
    45    21    22 ar  
    46    21    24 ar  
    47    22    23 ar  
    48    22    58 1   
    49    23    26 ar  
    50    23    59 1   
    51    24    25 ar  
    52    25    26 ar  
    53    25    60 1   
    54    26    27 1   
    55    27    28 2   
    56    27    29 1   
    57    29    30 1   
    58    29    61 1   
    59    30    31 1   
    60    30    62 1   
    61    30    63 1   
    62    31    32 ar  
    63    31    36 ar  
    64    32    33 ar  
    65    32    64 1   
    66    33    34 ar  
    67    33    66 1   
    68    34    35 ar  
    69    34    67 1   
    70    35    36 ar  
    71    35    68 1   
    72    36    65 1   
@<TRIPOS>SUBSTRUCTURE
     1 592         1 TEMP              0 ****  ****    0 ROOT
