@<TRIPOS>MOLECULE
593
   49    53     1     0     0
SMALL
No Charge or Current Charge


@<TRIPOS>ATOM
      1 C1          -2.4970    -3.3450     1.1600 c3         1 593       0.095300
      2 N1          -1.8680    -2.2100     0.4470 n          1 593      -0.383300
      3 O1          -1.0260    -1.1340     2.3130 o          1 593      -0.516000
      4 C2          -1.1820    -1.2090     1.1000 c          1 593       0.551000
      5 N2          -1.0800    -1.0660    -1.3330 n2         1 593      -0.695900
      6 C3          -0.6790    -0.2920    -0.0850 c5         1 593       0.127500
      7 N3          -2.3060    -2.9900    -1.6990 nv         1 593      -1.020200
      8 C4          -1.7400    -2.0590    -0.9080 c2         1 593       0.659800
      9 C5          -1.4220     1.0790    -0.0570 ca         1 593      -0.073300
     10 C6          -1.7500     1.7280     1.1590 ca         1 593      -0.091500
     11 C7          -2.4230     2.9630     1.1690 ca         1 593      -0.120500
     12 C8          -2.7840     3.5800    -0.0370 ca         1 593      -0.105000
     13 C9          -2.4660     2.9600    -1.2530 ca         1 593      -0.120500
     14 C10         -1.7930     1.7260    -1.2630 ca         1 593      -0.091500
     15 C11          0.9070    -0.0900    -0.0790 c6         1 593      -0.007000
     16 C12          1.4010     0.6480    -1.3800 c6         1 593      -0.068400
     17 C13          2.9480     0.8180    -1.3820 c6         1 593      -0.057367
     18 C14          3.3770     1.6610    -0.1490 c6         1 593      -0.069067
     19 C15          2.9380     0.9350     1.1520 c6         1 593      -0.057367
     20 C16          1.3910     0.7660     1.1520 c6         1 593      -0.068400
     21 C17          3.6140    -0.4620     1.2220 c6         1 593      -0.069067
     22 C18          3.1890    -1.3060    -0.0120 c6         1 593      -0.057367
     23 C19          3.6240    -0.5800    -1.3150 c6         1 593      -0.069067
     24 C20          1.6430    -1.4820    -0.0080 c6         1 593      -0.068400
     25 H1          -3.5760    -3.3510     0.9650 h1         1 593       0.049700
     26 H1A         -2.0610    -4.2900     0.8090 h1         1 593       0.049700
     27 H1B         -2.3360    -3.2670     2.2420 h1         1 593       0.049700
     28 HN3         -2.3300    -2.6910    -2.6660 hn         1 593       0.481000
     29 HN3A        -3.1870    -3.3470    -1.3540 hn         1 593       0.481000
     30 H6          -1.4740     1.2960     2.1160 ha         1 593       0.131000
     31 H7          -2.6600     3.4430     2.1150 ha         1 593       0.111000
     32 H8          -3.3030     4.5350    -0.0290 ha         1 593       0.111000
     33 H9          -2.7390     3.4360    -2.1920 ha         1 593       0.111000
     34 H10         -1.5540     1.2780    -2.2240 ha         1 593       0.131000
     35 H12          1.1030     0.0950    -2.2800 hc         1 593       0.049367
     36 H12A         0.9350     1.6380    -1.4600 hc         1 593       0.049367
     37 H13          3.2590     1.3310    -2.3020 hc         1 593       0.047033
     38 H14          4.4660     1.8110    -0.1520 hc         1 593       0.038700
     39 H14A         2.9260     2.6620    -0.1970 hc         1 593       0.038700
     40 H15          3.2400     1.5320     2.0240 hc         1 593       0.047033
     41 H16          0.9340     1.7630     1.1330 hc         1 593       0.049367
     42 H16A         1.0840     0.3030     2.0980 hc         1 593       0.049367
     43 H17          4.7070    -0.3540     1.2490 hc         1 593       0.038700
     44 H17A         3.3300    -0.9760     2.1510 hc         1 593       0.038700
     45 H18          3.6700    -2.2930     0.0360 hc         1 593       0.047033
     46 H19          3.3470    -1.1780    -2.1940 hc         1 593       0.038700
     47 H19A         4.7170    -0.4750    -1.3430 hc         1 593       0.038700
     48 H20          1.3500    -2.0320     0.8960 hc         1 593       0.049367
     49 H20A         1.3540    -2.1160    -0.8570 hc         1 593       0.049367
@<TRIPOS>BOND
     1     1     2 1   
     2     1    25 1   
     3     1    26 1   
     4     1    27 1   
     5     2     4 1   
     6     2     8 1   
     7     3     4 2   
     8     4     6 1   
     9     5     6 1   
    10     5     8 2   
    11     6     9 1   
    12     6    15 1   
    13     7     8 1   
    14     7    28 1   
    15     7    29 1   
    16     9    10 ar  
    17     9    14 ar  
    18    10    11 ar  
    19    10    30 1   
    20    11    12 ar  
    21    11    31 1   
    22    12    13 ar  
    23    12    32 1   
    24    13    14 ar  
    25    13    33 1   
    26    14    34 1   
    27    15    16 1   
    28    15    20 1   
    29    15    24 1   
    30    16    17 1   
    31    16    35 1   
    32    16    36 1   
    33    17    18 1   
    34    17    23 1   
    35    17    37 1   
    36    18    19 1   
    37    18    38 1   
    38    18    39 1   
    39    19    20 1   
    40    19    21 1   
    41    19    40 1   
    42    20    41 1   
    43    20    42 1   
    44    21    22 1   
    45    21    43 1   
    46    21    44 1   
    47    22    23 1   
    48    22    24 1   
    49    22    45 1   
    50    23    46 1   
    51    23    47 1   
    52    24    48 1   
    53    24    49 1   
@<TRIPOS>SUBSTRUCTURE
     1 593         1 TEMP              0 ****  ****    0 ROOT
