@<TRIPOS>MOLECULE
593
   49    53     1     0     0
SMALL
bcc


@<TRIPOS>ATOM
      1 C1          -2.3360    -3.3320     1.1250 c3         1 593       0.095300
      2 N1          -1.7600    -2.1930     0.4530 n          1 593      -0.450300
      3 O1          -1.0910    -0.9770     2.2660 o          1 593      -0.591500
      4 C2          -1.1790    -1.1220     1.0650 c          1 593       0.693500
      5 N2          -1.0720    -0.9380    -1.2820 n2         1 593      -0.695900
      6 C3          -0.6890    -0.2190    -0.0800 c5         1 593       0.127500
      7 N3          -2.1060    -2.9880    -1.7420 nv         1 593      -0.909800
      8 C4          -1.6560    -2.0150    -0.9210 c2         1 593       0.659800
      9 C5          -1.4140     1.1250    -0.0420 ca         1 593      -0.073300
     10 C6          -1.6690     1.8090     1.1460 ca         1 593      -0.109500
     11 C7          -2.3230     3.0350     1.1370 ca         1 593      -0.138500
     12 C8          -2.7310     3.6070    -0.0590 ca         1 593      -0.123000
     13 C9          -2.4780     2.9380    -1.2480 ca         1 593      -0.138500
     14 C10         -1.8320     1.7090    -1.2370 ca         1 593      -0.109500
     15 C11          0.8780    -0.0570    -0.0420 c6         1 593      -0.007000
     16 C12          1.3470     0.6640    -1.3160 c6         1 593      -0.068400
     17 C13          2.8720     0.7900    -1.3390 c6         1 593      -0.057367
     18 C14          3.3390     1.5920    -0.1250 c6         1 593      -0.069067
     19 C15          2.8980     0.8730     1.1500 c6         1 593      -0.057367
     20 C16          1.3700     0.7540     1.1670 c6         1 593      -0.068400
     21 C17          3.5290    -0.5190     1.1940 c6         1 593      -0.069067
     22 C18          3.0690    -1.3190    -0.0240 c6         1 593      -0.057367
     23 C19          3.5020    -0.6030    -1.3030 c6         1 593      -0.069067
     24 C20          1.5430    -1.4450    -0.0000 c6         1 593      -0.068400
     25 H1          -3.4110    -3.3900     0.9540 h1         1 593       0.049700
     26 H1A         -1.8680    -4.2560     0.7900 h1         1 593       0.049700
     27 H1B         -2.1650    -3.2280     2.1930 h1         1 593       0.049700
     28 HN3         -2.1640    -2.7380    -2.7160 hn         1 593       0.425800
     29 HN3A        -2.8600    -3.5770    -1.4270 hn         1 593       0.425800
     30 H6          -1.3670     1.3920     2.0960 ha         1 593       0.149000
     31 H7          -2.5140     3.5410     2.0750 ha         1 593       0.129000
     32 H8          -3.2430     4.5610    -0.0640 ha         1 593       0.129000
     33 H9          -2.7880     3.3680    -2.1920 ha         1 593       0.129000
     34 H10         -1.6520     1.1930    -2.1690 ha         1 593       0.149000
     35 H12          1.0040     0.1200    -2.1990 hc         1 593       0.049367
     36 H12A         0.9010     1.6620    -1.3690 hc         1 593       0.049367
     37 H13          3.1710     1.3030    -2.2580 hc         1 593       0.047033
     38 H14          4.4280     1.7060    -0.1390 hc         1 593       0.038700
     39 H14A         2.9170     2.6020    -0.1540 hc         1 593       0.038700
     40 H15          3.2150     1.4470     2.0260 hc         1 593       0.047033
     41 H16          0.9370     1.7580     1.1480 hc         1 593       0.049367
     42 H16A         1.0490     0.2880     2.1010 hc         1 593       0.049367
     43 H17          4.6210    -0.4390     1.2080 hc         1 593       0.038700
     44 H17A         3.2400    -1.0340     2.1160 hc         1 593       0.038700
     45 H18          3.5040    -2.3220     0.0050 hc         1 593       0.047033
     46 H19          3.1940    -1.1800    -2.1810 hc         1 593       0.038700
     47 H19A         4.5940    -0.5270    -1.3450 hc         1 593       0.038700
     48 H20          1.2500    -1.9840     0.9070 hc         1 593       0.049367
     49 H20A         1.2130    -2.0430    -0.8530 hc         1 593       0.049367
@<TRIPOS>BOND
     1     1     2 1   
     2     1    25 1   
     3     1    26 1   
     4     1    27 1   
     5     2     4 1   
     6     2     8 1   
     7     3     4 2   
     8     4     6 1   
     9     5     6 1   
    10     5     8 2   
    11     6     9 1   
    12     6    15 1   
    13     7     8 1   
    14     7    28 1   
    15     7    29 1   
    16     9    10 ar  
    17     9    14 ar  
    18    10    11 ar  
    19    10    30 1   
    20    11    12 ar  
    21    11    31 1   
    22    12    13 ar  
    23    12    32 1   
    24    13    14 ar  
    25    13    33 1   
    26    14    34 1   
    27    15    16 1   
    28    15    20 1   
    29    15    24 1   
    30    16    17 1   
    31    16    35 1   
    32    16    36 1   
    33    17    18 1   
    34    17    23 1   
    35    17    37 1   
    36    18    19 1   
    37    18    38 1   
    38    18    39 1   
    39    19    20 1   
    40    19    21 1   
    41    19    40 1   
    42    20    41 1   
    43    20    42 1   
    44    21    22 1   
    45    21    43 1   
    46    21    44 1   
    47    22    23 1   
    48    22    24 1   
    49    22    45 1   
    50    23    46 1   
    51    23    47 1   
    52    24    48 1   
    53    24    49 1   
@<TRIPOS>SUBSTRUCTURE
     1 593         1 TEMP              0 ****  ****    0 ROOT
