@<TRIPOS>MOLECULE
594
   65    69     1     0     0
SMALL
abcg2


@<TRIPOS>ATOM
      1 CBI          4.2450     2.8850     0.5310 c5         1 594       0.094700
      2 NAU          4.6620     2.5890     1.8790 ns         1 594      -0.512900
      3 CBA          5.9420     2.9680     2.1440 c          1 594       0.617000
      4 OAC          6.5030     2.9090     3.2280 o          1 594      -0.581000
      5 NAT          6.4750     3.4140     0.9810 ns         1 594      -0.529900
      6 CBF          5.5490     3.4370    -0.1190 c5         1 594       0.106700
      7 CAO          5.9560     2.5110    -1.2680 c5         1 594       0.037600
      8 SAY          5.3370     0.8670    -0.8260 ss         1 594      -0.409000
      9 CBH          3.7930     1.6440    -0.2480 c5         1 594       0.075300
     10 CAK          2.9090     0.6960     0.5410 c3         1 594      -0.057400
     11 CAI          2.2440    -0.3690    -0.3210 c3         1 594      -0.081400
     12 CAH          1.2950    -1.2490     0.4830 c3         1 594      -0.066400
     13 CAJ          0.5580    -2.2290    -0.4130 c3         1 594      -0.157400
     14 CAZ         -0.3880    -3.1370     0.3230 c          1 594       0.641100
     15 OAB         -0.5480    -3.1660     1.5160 o          1 594      -0.517100
     16 NAV         -1.0860    -3.9830    -0.5290 ns         1 594      -0.632300
     17 SBK         -2.2500    -5.0530    -0.0360 s6         1 594       1.443500
     18 OAD         -2.7160    -5.6830    -1.2470 o          1 594      -0.536000
     19 OAE         -1.8000    -5.8330     1.0810 o          1 594      -0.536000
     20 OAW         -3.3780    -4.1160     0.5670 os         1 594      -0.556700
     21 CAN         -4.0970    -3.2170    -0.3030 c3         1 594       0.216600
     22 CBE         -4.0990    -1.8470     0.3170 c5         1 594       0.147300
     23 OAX         -2.7960    -1.2930     0.2650 os         1 594      -0.453000
     24 CAL         -4.9600    -0.8510    -0.4520 c5         1 594       0.110300
     25 OAL         -6.3070    -1.0390    -0.1470 oh         1 594      -0.693000
     26 CAM         -4.3550     0.4630     0.0210 c5         1 594       0.110300
     27 F8Q         -4.4420     1.4630    -0.9260 f          1 594      -0.236000
     28 CBG         -2.8810     0.1070     0.3300 c5         1 594       0.292300
     29 N9          -1.9550     0.6740    -0.6060 na         1 594      -0.291300
     30 C8          -1.8230     0.3740    -1.9370 cc         1 594       0.417700
     31 N7          -0.9310     1.1000    -2.5390 nd         1 594      -0.548100
     32 C5          -0.4530     1.9380    -1.5640 ca         1 594      -0.096600
     33 C4          -1.0780     1.6910    -0.3530 ca         1 594       0.141500
     34 N3          -0.8540     2.3160     0.7990 nb         1 594      -0.218000
     35 C2           0.0740     3.2500     0.6750 ca         1 594       0.184900
     36 N1           0.7570     3.5950    -0.4130 nb         1 594      -0.310000
     37 C6           0.5220     2.9530    -1.5640 ca         1 594       0.449900
     38 N6           1.2270     3.2790    -2.6480 nv         1 594      -1.061900
     39 H1           3.4370     3.6230     0.5170 h1         1 594       0.074700
     40 H2           4.0020     2.4770     2.6300 hn         1 594       0.338500
     41 H3           7.4060     3.7890     0.9270 hn         1 594       0.344500
     42 H4           5.4160     4.4530    -0.5000 h1         1 594       0.061700
     43 H5           5.4950     2.8390    -2.2010 h1         1 594       0.074700
     44 H6           7.0360     2.4860    -1.4130 h1         1 594       0.074700
     45 H7           3.2500     1.9880    -1.1350 h1         1 594       0.069700
     46 H8           3.4900     0.2280     1.3410 hc         1 594       0.056200
     47 H9           2.1310     1.2890     1.0320 hc         1 594       0.056200
     48 H10          1.6910     0.1190    -1.1310 hc         1 594       0.045700
     49 H11          3.0040    -0.9920    -0.8030 hc         1 594       0.045700
     50 H12          1.8580    -1.7890     1.2490 hc         1 594       0.058700
     51 H13          0.5750    -0.6180     1.0120 hc         1 594       0.058700
     52 H14         -0.0090    -1.6900    -1.1790 hc         1 594       0.064200
     53 H15          1.2680    -2.8550    -0.9640 hc         1 594       0.064200
     54 H16         -0.9080    -3.9590    -1.5260 hn         1 594       0.342500
     55 H17         -3.6560    -3.1790    -1.3020 h1         1 594       0.067700
     56 H18         -5.1170    -3.5890    -0.3930 h1         1 594       0.067700
     57 H19         -4.4550    -1.9080     1.3540 h1         1 594       0.101700
     58 H20         -4.7660    -0.9620    -1.5300 h1         1 594       0.053700
     59 H21         -6.8460    -0.6310    -0.8310 ho         1 594       0.526000
     60 H22         -4.8570     0.8080     0.9280 h1         1 594       0.095700
     61 H23         -2.5940     0.4770     1.3170 h2         1 594       0.121700
     62 H24         -2.4070    -0.4020    -2.4080 h5         1 594       0.065800
     63 H25          0.3130     3.8090     1.5730 h5         1 594       0.050100
     64 H26          1.0210     2.8690    -3.5420 hn         1 594       0.507000
     65 H27          1.8470     4.0700    -2.6230 hn         1 594       0.507000
@<TRIPOS>BOND
     1     1     2 1   
     2     1     6 1   
     3     1     9 1   
     4     1    39 1   
     5     2     3 1   
     6     2    40 1   
     7     3     4 2   
     8     3     5 1   
     9     5     6 1   
    10     5    41 1   
    11     6     7 1   
    12     6    42 1   
    13     7     8 1   
    14     7    43 1   
    15     7    44 1   
    16     8     9 1   
    17     9    10 1   
    18     9    45 1   
    19    10    11 1   
    20    10    46 1   
    21    10    47 1   
    22    11    12 1   
    23    11    48 1   
    24    11    49 1   
    25    12    13 1   
    26    12    50 1   
    27    12    51 1   
    28    13    14 1   
    29    13    52 1   
    30    13    53 1   
    31    14    15 2   
    32    14    16 1   
    33    16    17 1   
    34    16    54 1   
    35    17    18 2   
    36    17    19 2   
    37    17    20 1   
    38    20    21 1   
    39    21    22 1   
    40    21    55 1   
    41    21    56 1   
    42    22    23 1   
    43    22    24 1   
    44    22    57 1   
    45    23    28 1   
    46    24    25 1   
    47    24    26 1   
    48    24    58 1   
    49    25    59 1   
    50    26    27 1   
    51    26    28 1   
    52    26    60 1   
    53    28    29 1   
    54    28    61 1   
    55    29    30 1   
    56    29    33 1   
    57    30    31 2   
    58    30    62 1   
    59    31    32 1   
    60    32    33 ar  
    61    32    37 ar  
    62    33    34 ar  
    63    34    35 ar  
    64    35    36 ar  
    65    35    63 1   
    66    36    37 ar  
    67    37    38 1   
    68    38    64 1   
    69    38    65 1   
@<TRIPOS>SUBSTRUCTURE
     1 594         1 TEMP              0 ****  ****    0 ROOT
