@<TRIPOS>MOLECULE
594
   65    69     1     0     0
SMALL
No Charge or Current Charge


@<TRIPOS>ATOM
      1 CBI          4.2380     2.6520    -0.9150 c5         1 594       0.094700
      2 NAU          3.9280     3.1810     0.4170 ns         1 594      -0.512900
      3 CBA          4.9800     3.7900     1.0050 c          1 594       0.617000
      4 OAC          4.9650     4.3210     2.0980 o          1 594      -0.581000
      5 NAT          6.0480     3.7390     0.1760 ns         1 594      -0.529900
      6 CBF          5.7770     3.0030    -1.0610 c5         1 594       0.106700
      7 CAO          6.6060     1.6800    -0.9280 c5         1 594       0.037600
      8 SAY          5.5950     0.5190     0.0990 ss         1 594      -0.409000
      9 CBH          4.1070     1.0870    -0.8460 c5         1 594       0.075300
     10 CAK          2.7890     0.5200    -0.2450 c3         1 594      -0.057400
     11 CAI          2.6780    -1.0200    -0.3460 c3         1 594      -0.081400
     12 CAH          1.3550    -1.5980     0.2060 c3         1 594      -0.066400
     13 CAJ          1.3390    -3.1480     0.1580 c3         1 594      -0.157400
     14 CAZ          0.0440    -3.7450     0.7160 c          1 594       0.641100
     15 OAB         -0.2200    -3.7190     1.9060 o          1 594      -0.517100
     16 NAV         -0.7450    -4.3410    -0.2120 ns         1 594      -0.632300
     17 SBK         -2.1910    -5.1120     0.0380 s6         1 594       1.443500
     18 OAD         -2.6710    -5.5810    -1.2660 o          1 594      -0.536000
     19 OAE         -2.0520    -6.0290     1.1740 o          1 594      -0.536000
     20 OAW         -3.0710    -3.8130     0.5100 os         1 594      -0.556700
     21 CAN         -3.6150    -2.9880    -0.5350 c3         1 594       0.216600
     22 CBE         -4.0950    -1.6670     0.1090 c5         1 594       0.147300
     23 OAX         -2.9590    -0.8330     0.4450 os         1 594      -0.453000
     24 CAL         -4.9370    -0.7480    -0.8170 c5         1 594       0.110300
     25 OAL         -6.2670    -1.2390    -1.0450 oh         1 594      -0.693000
     26 CAM         -4.8990     0.5340     0.0600 c5         1 594       0.110300
     27 F8Q         -5.2540     1.6770    -0.6680 f          1 594      -0.236000
     28 CBG         -3.4080     0.5380     0.5550 c5         1 594       0.292300
     29 N9          -2.4280     1.3750    -0.1460 na         1 594      -0.291300
     30 C8          -2.4510     1.7300    -1.5000 cc         1 594       0.417700
     31 N7          -1.4470     2.5740    -1.8080 nd         1 594      -0.548100
     32 C5          -0.7770     2.7280    -0.5910 ca         1 594      -0.096600
     33 C4          -1.3540     2.0010     0.4190 ca         1 594       0.141500
     34 N3          -0.8700     2.0060     1.6770 nb         1 594      -0.218000
     35 C2           0.2230     2.7800     1.8810 ca         1 594       0.184900
     36 N1           0.8590     3.5430     0.9590 nb         1 594      -0.310000
     37 C6           0.3530     3.5110    -0.2830 ca         1 594       0.449900
     38 N6           0.9800     4.2850    -1.2070 nv         1 594      -1.061900
     39 H1           3.6180     3.0990    -1.7040 h1         1 594       0.074700
     40 H2           3.0280     3.1790     0.8790 hn         1 594       0.338500
     41 H3           6.9250     4.1530     0.4650 hn         1 594       0.344500
     42 H4           6.0170     3.5780    -1.9660 h1         1 594       0.061700
     43 H5           6.7580     1.2270    -1.9170 h1         1 594       0.074700
     44 H6           7.5960     1.8420    -0.4820 h1         1 594       0.074700
     45 H7           4.1950     0.6890    -1.8660 h1         1 594       0.069700
     46 H8           2.6960     0.8100     0.8080 hc         1 594       0.056200
     47 H9           1.9350     0.9660    -0.7690 hc         1 594       0.056200
     48 H10          2.7860    -1.3190    -1.3960 hc         1 594       0.045700
     49 H11          3.5130    -1.4770     0.1990 hc         1 594       0.045700
     50 H12          1.2170    -1.2650     1.2430 hc         1 594       0.058700
     51 H13          0.5110    -1.2020    -0.3730 hc         1 594       0.058700
     52 H14          1.4830    -3.4670    -0.8810 hc         1 594       0.064200
     53 H15          2.1720    -3.5190     0.7670 hc         1 594       0.064200
     54 H16         -0.4820    -4.3430    -1.1810 hn         1 594       0.342500
     55 H17         -2.8660    -2.7480    -1.3020 h1         1 594       0.067700
     56 H18         -4.4650    -3.4850    -1.0230 h1         1 594       0.067700
     57 H19         -4.6510    -1.9080     1.0270 h1         1 594       0.101700
     58 H20         -4.4170    -0.5900    -1.7730 h1         1 594       0.053700
     59 H21         -6.7410    -0.5660    -1.5910 ho         1 594       0.526000
     60 H22         -5.5840     0.4510     0.9140 h1         1 594       0.095700
     61 H23         -3.3800     0.8590     1.6050 h2         1 594       0.121700
     62 H24         -3.2000     1.3620    -2.1900 h5         1 594       0.065800
     63 H25          0.6270     2.7960     2.8920 h5         1 594       0.050100
     64 H26          0.4790     4.4380    -2.0780 hn         1 594       0.507000
     65 H27          1.5520     5.0540    -0.8750 hn         1 594       0.507000
@<TRIPOS>BOND
     1     1     2 1   
     2     1     6 1   
     3     1     9 1   
     4     1    39 1   
     5     2     3 1   
     6     2    40 1   
     7     3     4 2   
     8     3     5 1   
     9     5     6 1   
    10     5    41 1   
    11     6     7 1   
    12     6    42 1   
    13     7     8 1   
    14     7    43 1   
    15     7    44 1   
    16     8     9 1   
    17     9    10 1   
    18     9    45 1   
    19    10    11 1   
    20    10    46 1   
    21    10    47 1   
    22    11    12 1   
    23    11    48 1   
    24    11    49 1   
    25    12    13 1   
    26    12    50 1   
    27    12    51 1   
    28    13    14 1   
    29    13    52 1   
    30    13    53 1   
    31    14    15 2   
    32    14    16 1   
    33    16    17 1   
    34    16    54 1   
    35    17    18 2   
    36    17    19 2   
    37    17    20 1   
    38    20    21 1   
    39    21    22 1   
    40    21    55 1   
    41    21    56 1   
    42    22    23 1   
    43    22    24 1   
    44    22    57 1   
    45    23    28 1   
    46    24    25 1   
    47    24    26 1   
    48    24    58 1   
    49    25    59 1   
    50    26    27 1   
    51    26    28 1   
    52    26    60 1   
    53    28    29 1   
    54    28    61 1   
    55    29    30 1   
    56    29    33 1   
    57    30    31 2   
    58    30    62 1   
    59    31    32 1   
    60    32    33 ar  
    61    32    37 ar  
    62    33    34 ar  
    63    34    35 ar  
    64    35    36 ar  
    65    35    63 1   
    66    36    37 ar  
    67    37    38 1   
    68    38    64 1   
    69    38    65 1   
@<TRIPOS>SUBSTRUCTURE
     1 594         1 TEMP              0 ****  ****    0 ROOT
