@<TRIPOS>MOLECULE
595
   92    94     1     0     0
SMALL
bcc


@<TRIPOS>ATOM
      1 C            4.9890    -0.1630    -3.4270 ca         1 595       0.236600
      2 N            5.7760    -0.7520    -4.3630 nv         1 595      -0.844200
      3 O            2.9900     2.8030     0.3990 o          1 595      -0.634800
      4 S            2.3650     1.6130    -0.1640 sy         1 595       1.346200
      5 C1           3.5890    -0.2330    -3.5150 ca         1 595      -0.236500
      6 C2           2.7920     0.3260    -2.5390 ca         1 595       0.028500
      7 C3           3.3690     0.9650    -1.4450 ca         1 595      -0.360500
      8 C4           4.7560     1.0520    -1.3460 ca         1 595       0.028500
      9 C5           5.5540     0.5050    -2.3250 ca         1 595      -0.236500
     10 N6           2.3620     0.4750     1.0280 n3         1 595      -0.782500
     11 O7           1.0140     1.7310    -0.7110 o          1 595      -0.634800
     12 C8           2.7840     0.8070     2.3770 c3         1 595       0.130500
     13 C9           1.9410     0.1090     3.4500 c3         1 595      -0.075400
     14 C10          1.8970    -0.8600     0.6630 c3         1 595       0.221800
     15 C11          2.9870    -1.9180     0.5610 c3         1 595      -0.092400
     16 C12          2.5070    -3.1880    -0.1450 c3         1 595      -0.058700
     17 C13          3.6700    -4.1570    -0.3260 c3         1 595      -0.091100
     18 C14          1.3530    -3.8680     0.5840 c3         1 595      -0.091100
     19 C15          0.4830     0.5470     3.3990 c3         1 595      -0.074400
     20 C16         -0.4460    -0.3830     4.1670 c3         1 595      -0.097400
     21 C17         -1.9360    -0.0990     3.9370 c3         1 595       0.128700
     22 N18         -2.2630     0.0550     2.5210 ns         1 595      -0.569900
     23 C19         -1.9460    -0.8300     1.5650 c          1 595       0.653100
     24 C20         -1.9940    -0.3070     0.1110 c3         1 595       0.056700
     25 N21         -1.7770    -1.3910    -0.8020 ns         1 595      -0.546900
     26 C22         -2.6210    -2.4370    -0.8920 c          1 595       0.764100
     27 O23         -2.1280    -3.3760    -1.7020 os         1 595      -0.435900
     28 C24         -2.9330    -4.5310    -1.9120 c3         1 595       0.149700
     29 O25         -3.6960    -2.5120    -0.3360 o          1 595      -0.589000
     30 C26          4.2550     0.5880     2.6330 c          1 595       0.565900
     31 O27          5.0650     0.2340     1.8190 o          1 595      -0.508100
     32 O28         -1.5580    -1.9610     1.8020 o          1 595      -0.605100
     33 C29         -3.3070     1.9040     0.3910 ca         1 595      -0.080800
     34 C30         -3.3960     0.6700    -1.7530 ca         1 595      -0.080800
     35 C31         -4.5620     0.2350    -2.3720 ca         1 595      -0.121500
     36 C32         -4.7370     0.3750    -3.7430 ca         1 595      -0.131750
     37 C33         -3.7400     0.9510    -4.5170 ca         1 595      -0.128500
     38 C34         -2.5690     1.3850    -3.9070 ca         1 595      -0.131750
     39 C35         -2.4000     1.2480    -2.5380 ca         1 595      -0.121500
     40 C36         -4.5350     2.3620     0.8660 ca         1 595      -0.121500
     41 C37         -4.6600     3.6230     1.4300 ca         1 595      -0.131750
     42 C38         -3.5500     4.4510     1.5360 ca         1 595      -0.128500
     43 C39         -2.3210     4.0060     1.0710 ca         1 595      -0.131750
     44 C40         -2.1990     2.7450     0.5010 ca         1 595      -0.121500
     45 C41         -2.8200    -1.1260     4.6330 c3         1 595      -0.100100
     46 C42         -3.2500     0.5290    -0.2520 c3         1 595       0.022900
     47 HN           6.7440    -0.4830    -4.4180 hn         1 595       0.418800
     48 HNA          5.3620    -1.0040    -5.2450 hn         1 595       0.418800
     49 H1           3.1290    -0.7260    -4.3620 ha         1 595       0.135000
     50 H2           1.7170     0.2660    -2.6440 ha         1 595       0.151500
     51 H4           5.2200     1.5540    -0.5090 ha         1 595       0.151500
     52 H5           6.6310     0.5870    -2.2430 ha         1 595       0.135000
     53 H8           2.6400     1.8820     2.5400 h1         1 595       0.092700
     54 H9           2.0270    -0.9780     3.3530 hc         1 595       0.052700
     55 H9A          2.3700     0.3540     4.4250 hc         1 595       0.052700
     56 H10          1.1100    -1.1640     1.3560 h1         1 595       0.053200
     57 H10A         1.3960    -0.7870    -0.3040 h1         1 595       0.053200
     58 H11          3.8300    -1.5000     0.0080 hc         1 595       0.052700
     59 H11A         3.3590    -2.1740     1.5590 hc         1 595       0.052700
     60 H12          2.1570    -2.8940    -1.1430 hc         1 595       0.039700
     61 H13          4.0630    -4.4800     0.6410 hc         1 595       0.036200
     62 H13A         3.3580    -5.0500    -0.8710 hc         1 595       0.036200
     63 H13B         4.4900    -3.6990    -0.8830 hc         1 595       0.036200
     64 H14          1.0590    -4.7850     0.0710 hc         1 595       0.036200
     65 H14A         1.6460    -4.1370     1.6020 hc         1 595       0.036200
     66 H14B         0.4650    -3.2400     0.6540 hc         1 595       0.036200
     67 H15          0.4010     1.5700     3.7800 hc         1 595       0.042700
     68 H15A         0.1720     0.5980     2.3530 hc         1 595       0.042700
     69 H16         -0.2280    -1.4190     3.9000 hc         1 595       0.055700
     70 H16A        -0.2580    -0.2950     5.2410 hc         1 595       0.055700
     71 H17         -2.1600     0.8790     4.3680 h1         1 595       0.041700
     72 HN18        -2.5320     0.9810     2.2310 hn         1 595       0.324500
     73 H20         -1.1120     0.3330     0.0080 h1         1 595       0.086700
     74 HN21        -0.8860    -1.4580    -1.2650 hn         1 595       0.331500
     75 H24         -2.3640    -5.1720    -2.5800 h1         1 595       0.046033
     76 H24A        -3.1250    -5.0640    -0.9820 h1         1 595       0.046033
     77 H24B        -3.8840    -4.2790    -2.3830 h1         1 595       0.046033
     78 H26          4.5520     0.8180     3.6730 h4         1 595      -0.009800
     79 H31         -5.3430    -0.2230    -1.7780 ha         1 595       0.143000
     80 H32         -5.6540     0.0290    -4.2050 ha         1 595       0.130750
     81 H33         -3.8730     1.0600    -5.5850 ha         1 595       0.128500
     82 H34         -1.7820     1.8340    -4.5000 ha         1 595       0.130750
     83 H35         -1.4760     1.5950    -2.0900 ha         1 595       0.143000
     84 H36         -5.4050     1.7200     0.7940 ha         1 595       0.143000
     85 H37         -5.6240     3.9570     1.7920 ha         1 595       0.130750
     86 H38         -3.6420     5.4330     1.9830 ha         1 595       0.128500
     87 H39         -1.4470     4.6400     1.1530 ha         1 595       0.130750
     88 H40         -1.2220     2.4300     0.1560 ha         1 595       0.143000
     89 H41         -2.6430    -1.0980     5.7080 hc         1 595       0.046700
     90 H41A        -3.8750    -0.9140     4.4610 hc         1 595       0.046700
     91 H41B        -2.6100    -2.1360     4.2830 hc         1 595       0.046700
     92 H42         -4.1220    -0.0200     0.1060 hc         1 595       0.085700
@<TRIPOS>BOND
     1     1     2 1   
     2     1     5 ar  
     3     1     9 ar  
     4     2    47 1   
     5     2    48 1   
     6     3     4 2   
     7     4     7 1   
     8     4    10 1   
     9     4    11 2   
    10     5     6 ar  
    11     5    49 1   
    12     6     7 ar  
    13     6    50 1   
    14     7     8 ar  
    15     8     9 ar  
    16     8    51 1   
    17     9    52 1   
    18    10    12 1   
    19    10    14 1   
    20    12    13 1   
    21    12    30 1   
    22    12    53 1   
    23    13    19 1   
    24    13    54 1   
    25    13    55 1   
    26    14    15 1   
    27    14    56 1   
    28    14    57 1   
    29    15    16 1   
    30    15    58 1   
    31    15    59 1   
    32    16    17 1   
    33    16    18 1   
    34    16    60 1   
    35    17    61 1   
    36    17    62 1   
    37    17    63 1   
    38    18    64 1   
    39    18    65 1   
    40    18    66 1   
    41    19    20 1   
    42    19    67 1   
    43    19    68 1   
    44    20    21 1   
    45    20    69 1   
    46    20    70 1   
    47    21    22 1   
    48    21    45 1   
    49    21    71 1   
    50    22    23 1   
    51    22    72 1   
    52    23    24 1   
    53    23    32 2   
    54    24    25 1   
    55    24    46 1   
    56    24    73 1   
    57    25    26 1   
    58    25    74 1   
    59    26    27 1   
    60    26    29 2   
    61    27    28 1   
    62    28    75 1   
    63    28    76 1   
    64    28    77 1   
    65    30    31 2   
    66    30    78 1   
    67    33    40 ar  
    68    33    44 ar  
    69    33    46 1   
    70    34    35 ar  
    71    34    39 ar  
    72    34    46 1   
    73    35    36 ar  
    74    35    79 1   
    75    36    37 ar  
    76    36    80 1   
    77    37    38 ar  
    78    37    81 1   
    79    38    39 ar  
    80    38    82 1   
    81    39    83 1   
    82    40    41 ar  
    83    40    84 1   
    84    41    42 ar  
    85    41    85 1   
    86    42    43 ar  
    87    42    86 1   
    88    43    44 ar  
    89    43    87 1   
    90    44    88 1   
    91    45    89 1   
    92    45    90 1   
    93    45    91 1   
    94    46    92 1   
@<TRIPOS>SUBSTRUCTURE
     1 595         1 TEMP              0 ****  ****    0 ROOT
