@<TRIPOS>MOLECULE
595
   92    94     1     0     0
SMALL
No Charge or Current Charge


@<TRIPOS>ATOM
      1 C            2.5490     1.1070    -3.7440 ca         1 595       0.375000
      2 N            2.2840     0.8640    -5.0600 nv         1 595      -1.093000
      3 O            4.9030     1.6590     0.9320 o          1 595      -0.564000
      4 S            3.5020     1.9980     0.6720 sy         1 595       1.204600
      5 C1           1.7040     1.9400    -3.0030 ca         1 595      -0.218500
      6 C2           1.9860     2.2120    -1.6540 ca         1 595       0.046500
      7 C3           3.1210     1.6400    -1.0490 ca         1 595      -0.360500
      8 C4           3.9700     0.8010    -1.7980 ca         1 595       0.046500
      9 C5           3.6750     0.5360    -3.1450 ca         1 595      -0.218500
     10 N6           2.5440     0.8820     1.5510 n3         1 595      -0.782500
     11 O7           2.9460     3.3200     0.9790 o          1 595      -0.564000
     12 C8           2.7250     0.9320     3.0530 c3         1 595       0.130500
     13 C9           1.6260     0.1660     3.8510 c3         1 595      -0.075400
     14 C10          2.3000    -0.4470     0.9260 c3         1 595       0.221800
     15 C11          3.4740    -1.4530     0.9730 c3         1 595      -0.092400
     16 C12          3.2690    -2.6970     0.0680 c3         1 595      -0.058700
     17 C13          4.5300    -3.5900     0.0620 c3         1 595      -0.091100
     18 C14          2.0140    -3.5180     0.4520 c3         1 595      -0.091100
     19 C15          0.1770     0.6010     3.5350 c3         1 595      -0.074400
     20 C16         -0.8860    -0.2590     4.2690 c3         1 595      -0.097400
     21 C17         -2.3380    -0.0170     3.7830 c3         1 595       0.128700
     22 N18         -2.4510    -0.1830     2.3310 ns         1 595      -0.502900
     23 C19         -2.1720    -1.3310     1.6070 c          1 595       0.586100
     24 C20         -1.9760    -1.1410     0.0630 c3         1 595       0.056700
     25 N21         -2.1150    -2.4380    -0.6470 ns         1 595      -0.479900
     26 C22         -3.2860    -3.1220    -0.8180 c          1 595       0.648100
     27 O23         -3.0330    -4.2430    -1.5490 os         1 595      -0.459100
     28 C24         -4.1420    -5.1070    -1.8530 c3         1 595       0.172900
     29 O25         -4.3750    -2.7830    -0.3840 o          1 595      -0.540000
     30 C26          4.1460     0.5860     3.6100 c          1 595       0.565900
     31 O27          4.4440    -0.4670     4.1710 o          1 595      -0.508100
     32 O28         -2.0470    -2.4210     2.1530 o          1 595      -0.605100
     33 C29         -2.4920     1.4230    -0.0860 ca         1 595      -0.080800
     34 C30         -2.7360    -0.0110    -2.1240 ca         1 595      -0.080800
     35 C31         -3.9180    -0.0480    -2.8930 ca         1 595      -0.103500
     36 C32         -3.8540    -0.0740    -4.2970 ca         1 595      -0.113750
     37 C33         -2.6080    -0.0640    -4.9450 ca         1 595      -0.110500
     38 C34         -1.4260    -0.0230    -4.1880 ca         1 595      -0.113750
     39 C35         -1.4880     0.0070    -2.7840 ca         1 595      -0.103500
     40 C36         -3.5520     2.3230     0.1510 ca         1 595      -0.103500
     41 C37         -3.3020     3.6040     0.6720 ca         1 595      -0.113750
     42 C38         -1.9880     3.9990     0.9650 ca         1 595      -0.110500
     43 C39         -0.9240     3.1170     0.7240 ca         1 595      -0.113750
     44 C40         -1.1700     1.8410     0.1900 ca         1 595      -0.103500
     45 C41         -3.3810    -0.8520     4.5550 c3         1 595      -0.100100
     46 C42         -2.8180     0.0090    -0.5930 c3         1 595       0.022900
     47 HN           3.0030     0.4270    -5.6310 hn         1 595       0.474000
     48 HNA          1.6100     1.4510    -5.5450 hn         1 595       0.474000
     49 H1           0.8290     2.3840    -3.4680 ha         1 595       0.117000
     50 H2           1.3280     2.8710    -1.0920 ha         1 595       0.133500
     51 H4           4.8560     0.3570    -1.3480 ha         1 595       0.133500
     52 H5           4.3320    -0.1100    -3.7200 ha         1 595       0.117000
     53 H8           2.6020     1.9830     3.3510 h1         1 595       0.092700
     54 H9           1.7310    -0.9110     3.6730 hc         1 595       0.052700
     55 H9A          1.8010     0.3150     4.9240 hc         1 595       0.052700
     56 H10          1.4430    -0.9250     1.4140 h1         1 595       0.053200
     57 H10A         1.9850    -0.3280    -0.1170 h1         1 595       0.053200
     58 H11          4.3980    -0.9500     0.6690 hc         1 595       0.052700
     59 H11A         3.6210    -1.7860     2.0060 hc         1 595       0.052700
     60 H12          3.1250    -2.3400    -0.9600 hc         1 595       0.039700
     61 H13          4.7340    -3.9850     1.0640 hc         1 595       0.036200
     62 H13A         4.4030    -4.4380    -0.6220 hc         1 595       0.036200
     63 H13B         5.4080    -3.0210    -0.2680 hc         1 595       0.036200
     64 H14          1.9240    -4.4070    -0.1840 hc         1 595       0.036200
     65 H14A         2.0680    -3.8490     1.4960 hc         1 595       0.036200
     66 H14B         1.0980    -2.9290     0.3230 hc         1 595       0.036200
     67 H15          0.0420     1.6560     3.8030 hc         1 595       0.042700
     68 H15A         0.0220     0.5330     2.4550 hc         1 595       0.042700
     69 H16         -0.6390    -1.3210     4.1450 hc         1 595       0.055700
     70 H16A        -0.8280    -0.0530     5.3450 hc         1 595       0.055700
     71 H17         -2.5690     1.0380     3.9850 h1         1 595       0.041700
     72 HN18        -2.5500     0.6650     1.7860 hn         1 595       0.324500
     73 H20         -0.9200    -0.8700    -0.0390 h1         1 595       0.086700
     74 HN21        -1.2990    -2.8620    -1.0680 hn         1 595       0.331500
     75 H24         -3.8060    -5.9680    -2.4440 h1         1 595       0.046033
     76 H24A        -4.6070    -5.4860    -0.9330 h1         1 595       0.046033
     77 H24B        -4.9060    -4.5730    -2.4340 h1         1 595       0.046033
     78 H26          4.9020     1.3950     3.5050 h4         1 595      -0.009800
     79 H31         -4.8900    -0.0590    -2.4050 ha         1 595       0.125000
     80 H32         -4.7700    -0.1050    -4.8820 ha         1 595       0.112750
     81 H33         -2.5590    -0.0870    -6.0310 ha         1 595       0.110500
     82 H34         -0.4610    -0.0160    -4.6880 ha         1 595       0.112750
     83 H35         -0.5630     0.0420    -2.2140 ha         1 595       0.125000
     84 H36         -4.5780     2.0280    -0.0600 ha         1 595       0.125000
     85 H37         -4.1280     4.2870     0.8550 ha         1 595       0.112750
     86 H38         -1.7940     4.9870     1.3760 ha         1 595       0.110500
     87 H39          0.0940     3.4220     0.9550 ha         1 595       0.112750
     88 H40         -0.3240     1.1840     0.0100 ha         1 595       0.125000
     89 H41         -3.3600    -0.5960     5.6210 hc         1 595       0.046700
     90 H41A        -4.3900    -0.6510     4.1780 hc         1 595       0.046700
     91 H41B        -3.1850    -1.9260     4.4630 hc         1 595       0.046700
     92 H42         -3.8570    -0.2040    -0.3140 hc         1 595       0.085700
@<TRIPOS>BOND
     1     1     2 1   
     2     1     5 ar  
     3     1     9 ar  
     4     2    47 1   
     5     2    48 1   
     6     3     4 2   
     7     4     7 1   
     8     4    10 1   
     9     4    11 2   
    10     5     6 ar  
    11     5    49 1   
    12     6     7 ar  
    13     6    50 1   
    14     7     8 ar  
    15     8     9 ar  
    16     8    51 1   
    17     9    52 1   
    18    10    12 1   
    19    10    14 1   
    20    12    13 1   
    21    12    30 1   
    22    12    53 1   
    23    13    19 1   
    24    13    54 1   
    25    13    55 1   
    26    14    15 1   
    27    14    56 1   
    28    14    57 1   
    29    15    16 1   
    30    15    58 1   
    31    15    59 1   
    32    16    17 1   
    33    16    18 1   
    34    16    60 1   
    35    17    61 1   
    36    17    62 1   
    37    17    63 1   
    38    18    64 1   
    39    18    65 1   
    40    18    66 1   
    41    19    20 1   
    42    19    67 1   
    43    19    68 1   
    44    20    21 1   
    45    20    69 1   
    46    20    70 1   
    47    21    22 1   
    48    21    45 1   
    49    21    71 1   
    50    22    23 1   
    51    22    72 1   
    52    23    24 1   
    53    23    32 2   
    54    24    25 1   
    55    24    46 1   
    56    24    73 1   
    57    25    26 1   
    58    25    74 1   
    59    26    27 1   
    60    26    29 2   
    61    27    28 1   
    62    28    75 1   
    63    28    76 1   
    64    28    77 1   
    65    30    31 2   
    66    30    78 1   
    67    33    40 ar  
    68    33    44 ar  
    69    33    46 1   
    70    34    35 ar  
    71    34    39 ar  
    72    34    46 1   
    73    35    36 ar  
    74    35    79 1   
    75    36    37 ar  
    76    36    80 1   
    77    37    38 ar  
    78    37    81 1   
    79    38    39 ar  
    80    38    82 1   
    81    39    83 1   
    82    40    41 ar  
    83    40    84 1   
    84    41    42 ar  
    85    41    85 1   
    86    42    43 ar  
    87    42    86 1   
    88    43    44 ar  
    89    43    87 1   
    90    44    88 1   
    91    45    89 1   
    92    45    90 1   
    93    45    91 1   
    94    46    92 1   
@<TRIPOS>SUBSTRUCTURE
     1 595         1 TEMP              0 ****  ****    0 ROOT
