@<TRIPOS>MOLECULE
596
   51    55     1     0     0
SMALL
bcc


@<TRIPOS>ATOM
      1 C1           1.5800    -3.8310    -0.5720 c6         1 596       0.145300
      2 C2           1.8110    -2.9030     0.6130 c6         1 596       0.132800
      3 N3           2.2830    -1.6110     0.1540 n3         1 596      -0.713600
      4 C4           3.4910    -1.7420    -0.6370 c6         1 596       0.132800
      5 C5           3.2550    -2.6760    -1.8170 c6         1 596       0.145300
      6 N6           2.7450    -3.9800    -1.4280 n7         1 596      -0.786200
      7 C7           2.4350    -0.6660     1.2450 c3         1 596       0.239100
      8 C8           2.4680     0.7470     0.7290 ca         1 596      -0.151300
      9 C9           1.3190     1.3320     0.2430 ca         1 596       0.199100
     10 C10          1.2530     2.6150    -0.2870 ca         1 596      -0.307600
     11 C11          2.4070     3.3850    -0.3550 ca         1 596       0.026000
     12 C12          3.5880     2.8490     0.1160 ca         1 596      -0.274000
     13 C13          3.6220     1.5460     0.6530 ca         1 596       0.208100
     14 O14          4.7430     0.9890     1.1170 os         1 596      -0.316900
     15 C15          5.9700     1.6930     1.0260 c3         1 596       0.125700
     16 O16          0.1110     0.7140     0.2500 os         1 596      -0.168200
     17 C17         -0.8050     1.5790    -0.2740 cc         1 596      -0.041100
     18 C18         -0.1300     2.8470    -0.6620 c          1 596       0.588900
     19 O19         -0.6550     3.8200    -1.1680 o          1 596      -0.507100
     20 C20         -2.1070     1.3020    -0.3940 cf         1 596      -0.129600
     21 C21         -2.7980     0.0990    -0.0080 cd         1 596       0.381200
     22 N22         -2.1990    -0.9520     0.5250 nc         1 596      -0.476100
     23 N23         -3.1390    -1.8520     0.7580 na         1 596      -0.000100
     24 C24         -4.3770    -1.4340     0.3950 ca         1 596      -0.048200
     25 C25         -4.2030    -0.1420    -0.1220 ca         1 596      -0.208900
     26 C26         -5.3100     0.5770    -0.5870 ca         1 596      -0.056000
     27 C27         -6.5480    -0.0210    -0.5170 ca         1 596      -0.161000
     28 C28         -6.7020    -1.3220     0.0070 ca         1 596      -0.093000
     29 C29         -5.6300    -2.0500     0.4700 ca         1 596      -0.145000
     30 H1           1.2670    -4.8140    -0.2150 h1         1 596       0.058450
     31 H1A          0.7590    -3.4310    -1.1760 h1         1 596       0.058450
     32 H2           0.8710    -2.7640     1.1540 h1         1 596       0.033200
     33 H2A          2.5230    -3.3790     1.3130 h1         1 596       0.033200
     34 H4           3.7910    -0.7600    -1.0100 h1         1 596       0.033200
     35 H4A          4.3330    -2.1310    -0.0350 h1         1 596       0.033200
     36 H5           2.5350    -2.2140    -2.4990 h1         1 596       0.058450
     37 H5A          4.1860    -2.8050    -2.3720 h1         1 596       0.058450
     38 HN6          3.4680    -4.4710    -0.9120 hn         1 596       0.340800
     39 H7           1.5700    -0.7730     1.9030 h1         1 596       0.047700
     40 H7A          3.3180    -0.8760     1.8650 h1         1 596       0.047700
     41 H11          2.3870     4.3860    -0.7670 ha         1 596       0.148000
     42 H12          4.4870     3.4450     0.0650 ha         1 596       0.141000
     43 H15          6.7320     1.0240     1.4160 h1         1 596       0.046033
     44 H15A         6.2150     1.9460    -0.0070 h1         1 596       0.046033
     45 H15B         5.9590     2.6060     1.6260 h1         1 596       0.046033
     46 H20         -2.7090     2.0900    -0.8300 ha         1 596       0.158000
     47 HN23        -2.8860    -2.7360     1.1710 hn         1 596       0.326700
     48 H26         -5.2020     1.5770    -0.9900 ha         1 596       0.139000
     49 H27         -7.4230     0.5110    -0.8650 ha         1 596       0.134000
     50 H28         -7.6930    -1.7560     0.0490 ha         1 596       0.132000
     51 H29         -5.7530    -3.0470     0.8730 ha         1 596       0.138000
@<TRIPOS>BOND
     1     1     2 1   
     2     1     6 1   
     3     1    30 1   
     4     1    31 1   
     5     2     3 1   
     6     2    32 1   
     7     2    33 1   
     8     3     4 1   
     9     3     7 1   
    10     4     5 1   
    11     4    34 1   
    12     4    35 1   
    13     5     6 1   
    14     5    36 1   
    15     5    37 1   
    16     6    38 1   
    17     7     8 1   
    18     7    39 1   
    19     7    40 1   
    20     8     9 ar  
    21     8    13 ar  
    22     9    10 ar  
    23     9    16 1   
    24    10    11 ar  
    25    10    18 1   
    26    11    12 ar  
    27    11    41 1   
    28    12    13 ar  
    29    12    42 1   
    30    13    14 1   
    31    14    15 1   
    32    15    43 1   
    33    15    44 1   
    34    15    45 1   
    35    16    17 1   
    36    17    18 1   
    37    17    20 2   
    38    18    19 2   
    39    20    21 1   
    40    20    46 1   
    41    21    22 2   
    42    21    25 1   
    43    22    23 1   
    44    23    24 1   
    45    23    47 1   
    46    24    25 ar  
    47    24    29 ar  
    48    25    26 ar  
    49    26    27 ar  
    50    26    48 1   
    51    27    28 ar  
    52    27    49 1   
    53    28    29 ar  
    54    28    50 1   
    55    29    51 1   
@<TRIPOS>SUBSTRUCTURE
     1 596         1 TEMP              0 ****  ****    0 ROOT
