@<TRIPOS>MOLECULE
596
   51    55     1     0     0
SMALL
No Charge or Current Charge


@<TRIPOS>ATOM
      1 C1           2.2240    -4.2180    -0.4310 c6         1 596       0.145300
      2 C2           2.2930    -3.1410     0.7000 c6         1 596       0.132800
      3 N3           2.4560    -1.7580     0.1590 n3         1 596      -0.713600
      4 C4           3.6330    -1.6900    -0.7620 c6         1 596       0.132800
      5 C5           3.5670    -2.7700    -1.8910 c6         1 596       0.145300
      6 N6           3.3990    -4.1500    -1.3490 n7         1 596      -0.841400
      7 C7           2.4820    -0.7300     1.2280 c3         1 596       0.239100
      8 C8           2.4220     0.6980     0.6960 ca         1 596      -0.151300
      9 C9           1.1930     1.2520     0.3080 ca         1 596       0.199100
     10 C10          1.1200     2.5400    -0.1790 ca         1 596      -0.307600
     11 C11          2.2400     3.3620    -0.3130 ca         1 596       0.044000
     12 C12          3.4840     2.8300     0.0750 ca         1 596      -0.256000
     13 C13          3.5820     1.5040     0.5800 ca         1 596       0.208100
     14 O14          4.7960     0.9690     0.9670 os         1 596      -0.340100
     15 C15          6.0320     1.6990     0.8660 c3         1 596       0.148900
     16 O16         -0.0270     0.5970     0.3740 os         1 596      -0.168200
     17 C17         -0.9330     1.5310    -0.1060 cc         1 596      -0.041100
     18 C18         -0.2790     2.8030    -0.4840 c          1 596       0.588900
     19 O19         -0.7630     3.8320    -0.9380 o          1 596      -0.507100
     20 C20         -2.2800     1.2960    -0.2130 cf         1 596      -0.179600
     21 C21         -3.0720     0.1120     0.1210 cd         1 596       0.381200
     22 N22         -2.5430    -0.9950     0.6680 nc         1 596      -0.476100
     23 N23         -3.6290    -1.8740     0.8310 na         1 596      -0.050400
     24 C24         -4.7950    -1.2840     0.3810 ca         1 596      -0.048200
     25 C25         -4.4970    -0.0390    -0.0730 ca         1 596      -0.208900
     26 C26         -5.4760     0.8180    -0.5990 ca         1 596      -0.038000
     27 C27         -6.8040     0.3400    -0.6420 ca         1 596      -0.143000
     28 C28         -7.1160    -0.9580    -0.1690 ca         1 596      -0.075000
     29 C29         -6.1010    -1.7900     0.3530 ca         1 596      -0.127000
     30 H1           2.1620    -5.2190     0.0210 h1         1 596       0.058450
     31 H1A          1.3010    -4.0630    -1.0100 h1         1 596       0.058450
     32 H2           1.3750    -3.2070     1.3030 h1         1 596       0.033200
     33 H2A          3.1330    -3.3850     1.3680 h1         1 596       0.033200
     34 H4           3.6930    -0.7010    -1.2380 h1         1 596       0.033200
     35 H4A          4.5640    -1.8300    -0.1940 h1         1 596       0.033200
     36 H5           2.7200    -2.5340    -2.5540 h1         1 596       0.058450
     37 H5A          4.4820    -2.7170    -2.5000 h1         1 596       0.058450
     38 HN6          4.2370    -4.3720    -0.7990 hn         1 596       0.396000
     39 H7           1.6210    -0.8740     1.8960 h1         1 596       0.047700
     40 H7A          3.3760    -0.8580     1.8540 h1         1 596       0.047700
     41 H11          2.1550     4.3770    -0.7000 ha         1 596       0.130000
     42 H12          4.3610     3.4620    -0.0220 ha         1 596       0.123000
     43 H15          6.8660     1.0820     1.2220 h1         1 596       0.046033
     44 H15A         6.2360     1.9790    -0.1750 h1         1 596       0.046033
     45 H15B         5.9980     2.6090     1.4780 h1         1 596       0.046033
     46 H20         -2.8560     2.1280    -0.6140 ha         1 596       0.208000
     47 HN23        -3.5260    -2.8050     1.2300 hn         1 596       0.377000
     48 H26         -5.2290     1.8140    -0.9620 ha         1 596       0.121000
     49 H27         -7.5920     0.9730    -1.0430 ha         1 596       0.116000
     50 H28         -8.1430    -1.3170    -0.2070 ha         1 596       0.114000
     51 H29         -6.3280    -2.7890     0.7200 ha         1 596       0.120000
@<TRIPOS>BOND
     1     1     2 1   
     2     1     6 1   
     3     1    30 1   
     4     1    31 1   
     5     2     3 1   
     6     2    32 1   
     7     2    33 1   
     8     3     4 1   
     9     3     7 1   
    10     4     5 1   
    11     4    34 1   
    12     4    35 1   
    13     5     6 1   
    14     5    36 1   
    15     5    37 1   
    16     6    38 1   
    17     7     8 1   
    18     7    39 1   
    19     7    40 1   
    20     8     9 ar  
    21     8    13 ar  
    22     9    10 ar  
    23     9    16 1   
    24    10    11 ar  
    25    10    18 1   
    26    11    12 ar  
    27    11    41 1   
    28    12    13 ar  
    29    12    42 1   
    30    13    14 1   
    31    14    15 1   
    32    15    43 1   
    33    15    44 1   
    34    15    45 1   
    35    16    17 1   
    36    17    18 1   
    37    17    20 2   
    38    18    19 2   
    39    20    21 1   
    40    20    46 1   
    41    21    22 2   
    42    21    25 1   
    43    22    23 1   
    44    23    24 1   
    45    23    47 1   
    46    24    25 ar  
    47    24    29 ar  
    48    25    26 ar  
    49    26    27 ar  
    50    26    48 1   
    51    27    28 ar  
    52    27    49 1   
    53    28    29 ar  
    54    28    50 1   
    55    29    51 1   
@<TRIPOS>SUBSTRUCTURE
     1 596         1 TEMP              0 ****  ****    0 ROOT
