@<TRIPOS>MOLECULE
598
   59    63     1     0     0
SMALL
abcg2


@<TRIPOS>ATOM
      1 S1          44.1500    13.9470     0.7600 ss         1 598       0.219000
      2 C2          44.4380    15.2640     1.8580 cc         1 598      -0.219600
      3 C3          45.4480    14.9790     2.7430 cd         1 598       0.123100
      4 C4          45.9940    13.6900     2.5060 cd         1 598      -0.171000
      5 C5          45.3960    13.0080     1.4770 cc         1 598      -0.261000
      6 C6          43.5500    16.4610     1.6910 c          1 598       0.729600
      7 O7          43.7210    17.4220     2.4610 o          1 598      -0.704500
      8 O8          42.7120    16.3570     0.7720 o          1 598      -0.704500
      9 O9          45.9060    15.7630     3.7380 os         1 598      -0.300100
     10 C10         46.8050    16.7850     3.3150 c3         1 598       0.022600
     11 C11         47.3530    17.5670     4.5150 c          1 598       0.732000
     12 O14         46.9760    17.2470     5.6520 o          1 598      -0.740500
     13 O15         48.1490    18.4750     4.1980 o          1 598      -0.740500
     14 S18         47.2660    12.7800     3.2640 ss         1 598       0.214000
     15 C19         46.9930    11.4500     2.1580 ca         1 598      -0.136000
     16 C20         45.9500    11.7100     1.2500 ca         1 598      -0.009000
     17 C21         47.7060    10.2570     2.1530 ca         1 598      -0.160000
     18 C22         47.3820     9.2820     1.2050 ca         1 598       0.278000
     19 C23         46.3240     9.5370     0.3000 ca         1 598      -0.198000
     20 C24         45.6260    10.7200     0.3180 ca         1 598      -0.054000
     21 N28         48.0720     8.1070     1.0830 nu         1 598      -0.973200
     22 C29         49.0020     7.5960     2.0610 c6         1 598       0.243500
     23 C30         48.3220     7.0720     3.3270 c6         1 598      -0.107400
     24 C31         49.3160     6.4320     4.2830 c6         1 598       0.230300
     25 N32         50.0820     5.4050     3.5870 n3         1 598      -0.790500
     26 C33         50.7990     5.8600     2.4010 c6         1 598       0.230300
     27 C34         49.8300     6.4910     1.4170 c6         1 598      -0.107400
     28 S44         50.5440     4.0580     4.3980 s6         1 598       1.213100
     29 C45         49.1760     2.9070     4.1570 c3         1 598      -0.256100
     30 C46         48.9400     2.6230     2.7100 ca         1 598      -0.070300
     31 C49         47.9470     3.3060     2.0130 ca         1 598      -0.090500
     32 C50         47.7370     3.0630     0.6630 ca         1 598      -0.112500
     33 C51         48.5210     2.1320    -0.0050 ca         1 598      -0.107000
     34 C52         49.5090     1.4410     0.6850 ca         1 598      -0.112500
     35 C53         49.7190     1.6870     2.0340 ca         1 598      -0.090500
     36 O59         50.6090     4.3370     5.8280 o          1 598      -0.546500
     37 O60         51.7200     3.5050     3.7400 o          1 598      -0.546500
     38 H101        46.2930    17.4720     2.6370 h1         1 598       0.020200
     39 H102        47.6430    16.3410     2.7620 h1         1 598       0.020200
     40 H21         48.4970    10.1010     2.8740 ha         1 598       0.103000
     41 H23         46.0670     8.7770    -0.4290 ha         1 598       0.084000
     42 H24         44.8250    10.8790    -0.3930 ha         1 598       0.109000
     43 H28         47.6220     7.4040     0.5150 hn         1 598       0.454000
     44 H29         49.6870     8.4060     2.3360 h1         1 598       0.067700
     45 H301        47.5630     6.3350     3.0500 hc         1 598       0.054950
     46 H302        47.8070     7.8800     3.8510 hc         1 598       0.054950
     47 H311        48.7760     5.9950     5.1210 h1         1 598       0.054200
     48 H312        49.9920     7.1890     4.6980 h1         1 598       0.054200
     49 H331        51.3000     5.0210     1.9250 h1         1 598       0.054200
     50 H332        51.5710     6.5850     2.6850 h1         1 598       0.054200
     51 H341        50.3990     6.8970     0.5780 hc         1 598       0.054950
     52 H342        49.1690     5.7160     1.0180 hc         1 598       0.054950
     53 H451        48.3050     3.3540     4.6380 h1         1 598       0.100700
     54 H452        49.4540     2.0120     4.7180 h1         1 598       0.100700
     55 H49         47.3260     4.0270     2.5300 ha         1 598       0.119500
     56 H50         46.9610     3.6000     0.1330 ha         1 598       0.113500
     57 H51         48.3580     1.9400    -1.0570 ha         1 598       0.110000
     58 H52         50.1170     0.7080     0.1710 ha         1 598       0.113500
     59 H53         50.4860     1.1400     2.5670 ha         1 598       0.119500
@<TRIPOS>BOND
     1     1     2 1   
     2     1     5 1   
     3     2     3 2   
     4     2     6 1   
     5     3     4 1   
     6     3     9 1   
     7     4     5 2   
     8     4    14 1   
     9     5    16 1   
    10     6     7 1   
    11     6     8 1   
    12     9    10 1   
    13    10    11 1   
    14    10    38 1   
    15    10    39 1   
    16    11    12 1   
    17    11    13 1   
    18    14    15 1   
    19    15    16 ar  
    20    15    17 ar  
    21    16    20 ar  
    22    17    18 ar  
    23    17    40 1   
    24    18    19 ar  
    25    18    21 1   
    26    19    20 ar  
    27    19    41 1   
    28    20    42 1   
    29    21    22 1   
    30    21    43 1   
    31    22    23 1   
    32    22    27 1   
    33    22    44 1   
    34    23    24 1   
    35    23    45 1   
    36    23    46 1   
    37    24    25 1   
    38    24    47 1   
    39    24    48 1   
    40    25    26 1   
    41    25    28 1   
    42    26    27 1   
    43    26    49 1   
    44    26    50 1   
    45    27    51 1   
    46    27    52 1   
    47    28    29 1   
    48    28    36 2   
    49    28    37 2   
    50    29    30 1   
    51    29    53 1   
    52    29    54 1   
    53    30    31 ar  
    54    30    35 ar  
    55    31    32 ar  
    56    31    55 1   
    57    32    33 ar  
    58    32    56 1   
    59    33    34 ar  
    60    33    57 1   
    61    34    35 ar  
    62    34    58 1   
    63    35    59 1   
@<TRIPOS>SUBSTRUCTURE
     1 598         1 TEMP              0 ****  ****    0 ROOT
