@<TRIPOS>MOLECULE
598
   59    63     1     0     0
SMALL
No Charge or Current Charge


@<TRIPOS>ATOM
      1 S1          43.9690    13.8510     0.6470 ss         1 598       0.219000
      2 C2          44.0690    15.1420     1.8650 cc         1 598      -0.219600
      3 C3          45.1790    14.9810     2.6840 cd         1 598       0.123100
      4 C4          45.9520    13.8240     2.3390 cd         1 598      -0.171000
      5 C5          45.4330    13.1360     1.2880 cc         1 598      -0.261000
      6 C6          43.0460    16.2140     1.9200 c          1 598       0.729600
      7 O7          43.1170    17.1000     2.7580 o          1 598      -0.704500
      8 O8          42.1390    16.1760     1.1010 o          1 598      -0.704500
      9 O9          45.4580    15.8660     3.7020 os         1 598      -0.300100
     10 C10         46.6100    15.7140     4.5640 c3         1 598       0.022600
     11 C11         46.7350    16.8290     5.6490 c          1 598       0.732000
     12 O14         45.8990    17.7230     5.7090 o          1 598      -0.740500
     13 O15         47.6870    16.7660     6.4170 o          1 598      -0.740500
     14 S18         47.4500    13.0980     2.9980 ss         1 598       0.214000
     15 C19         47.2990    11.8190     1.7470 ca         1 598      -0.136000
     16 C20         46.1930    11.9710     0.9230 ca         1 598      -0.009000
     17 C21         48.1830    10.7430     1.5670 ca         1 598      -0.160000
     18 C22         47.9290     9.8110     0.5350 ca         1 598       0.278000
     19 C23         46.8060     9.9780    -0.3010 ca         1 598      -0.198000
     20 C24         45.9250    11.0630    -0.1120 ca         1 598      -0.054000
     21 N28         48.7720     8.7220     0.3080 nu         1 598      -0.973200
     22 C29         49.5240     8.0090     1.3580 c6         1 598       0.243500
     23 C30         48.5590     7.3320     2.3550 c6         1 598      -0.107400
     24 C31         49.3500     6.5140     3.3970 c6         1 598       0.230300
     25 N32         50.2150     5.5010     2.7410 n3         1 598      -0.790500
     26 C33         51.1690     6.1260     1.7910 c6         1 598       0.230300
     27 C34         50.4280     6.9410     0.7090 c6         1 598      -0.107400
     28 S44         50.9350     4.3730     3.8250 s6         1 598       1.213100
     29 C45         49.5630     3.3490     4.4040 c3         1 598      -0.256100
     30 C46         48.7920     2.6240     3.3040 ca         1 598      -0.070300
     31 C49         47.6510     3.2140     2.7260 ca         1 598      -0.090500
     32 C50         46.9400     2.5430     1.7160 ca         1 598      -0.112500
     33 C51         47.3630     1.2760     1.2800 ca         1 598      -0.107000
     34 C52         48.4980     0.6810     1.8560 ca         1 598      -0.112500
     35 C53         49.2090     1.3530     2.8660 ca         1 598      -0.090500
     36 O59         51.4920     5.1470     4.9400 o          1 598      -0.546500
     37 O60         51.8130     3.5170     3.0180 o          1 598      -0.546500
     38 H101        47.5320    15.7390     3.9700 h1         1 598       0.020200
     39 H102        46.5600    14.7540     5.0940 h1         1 598       0.020200
     40 H21         49.0480    10.6400     2.2140 ha         1 598       0.103000
     41 H23         46.6100     9.2660    -1.0980 ha         1 598       0.084000
     42 H24         45.0570    11.1920    -0.7530 ha         1 598       0.109000
     43 H28         48.5360     8.1800    -0.5220 hn         1 598       0.454000
     44 H29         50.1710     8.7110     1.9090 h1         1 598       0.067700
     45 H301        47.8650     6.6690     1.8210 hc         1 598       0.054950
     46 H302        47.9490     8.0860     2.8690 hc         1 598       0.054950
     47 H311        48.6270     6.0350     4.0730 h1         1 598       0.054200
     48 H312        49.9540     7.2000     4.0090 h1         1 598       0.054200
     49 H331        51.7720     5.3610     1.2800 h1         1 598       0.054200
     50 H332        51.8710     6.7840     2.3270 h1         1 598       0.054200
     51 H341        51.1590     7.4180     0.0420 hc         1 598       0.054950
     52 H342        49.8280     6.2590     0.0920 hc         1 598       0.054950
     53 H451        48.9020     4.0100     4.9710 h1         1 598       0.100700
     54 H452        50.0090     2.6280     5.0970 h1         1 598       0.100700
     55 H49         47.3160     4.1940     3.0560 ha         1 598       0.119500
     56 H50         46.0610     3.0060     1.2720 ha         1 598       0.113500
     57 H51         46.8130     0.7570     0.4990 ha         1 598       0.110000
     58 H52         48.8270    -0.3000     1.5210 ha         1 598       0.113500
     59 H53         50.0880     0.8850     3.3060 ha         1 598       0.119500
@<TRIPOS>BOND
     1     1     2 1   
     2     1     5 1   
     3     2     3 2   
     4     2     6 1   
     5     3     4 1   
     6     3     9 1   
     7     4     5 2   
     8     4    14 1   
     9     5    16 1   
    10     6     7 1   
    11     6     8 1   
    12     9    10 1   
    13    10    11 1   
    14    10    38 1   
    15    10    39 1   
    16    11    12 1   
    17    11    13 1   
    18    14    15 1   
    19    15    16 ar  
    20    15    17 ar  
    21    16    20 ar  
    22    17    18 ar  
    23    17    40 1   
    24    18    19 ar  
    25    18    21 1   
    26    19    20 ar  
    27    19    41 1   
    28    20    42 1   
    29    21    22 1   
    30    21    43 1   
    31    22    23 1   
    32    22    27 1   
    33    22    44 1   
    34    23    24 1   
    35    23    45 1   
    36    23    46 1   
    37    24    25 1   
    38    24    47 1   
    39    24    48 1   
    40    25    26 1   
    41    25    28 1   
    42    26    27 1   
    43    26    49 1   
    44    26    50 1   
    45    27    51 1   
    46    27    52 1   
    47    28    29 1   
    48    28    36 2   
    49    28    37 2   
    50    29    30 1   
    51    29    53 1   
    52    29    54 1   
    53    30    31 ar  
    54    30    35 ar  
    55    31    32 ar  
    56    31    55 1   
    57    32    33 ar  
    58    32    56 1   
    59    33    34 ar  
    60    33    57 1   
    61    34    35 ar  
    62    34    58 1   
    63    35    59 1   
@<TRIPOS>SUBSTRUCTURE
     1 598         1 TEMP              0 ****  ****    0 ROOT
