@<TRIPOS>MOLECULE
599
   68    72     1     0     0
SMALL
abcg2


@<TRIPOS>ATOM
      1 C1          -5.3140     5.3300    -0.3790 c6         1 599       0.123300
      2 N2          -4.7690     4.0860     0.1370 n3         1 599      -0.711600
      3 C3          -3.9200     4.3650     1.2830 c6         1 599       0.123300
      4 C4          -4.6950     5.1360     2.3340 c6         1 599       0.152600
      5 O5          -5.2260     6.3370     1.8200 os         1 599      -0.447000
      6 C6          -6.0570     6.0760     0.7120 c6         1 599       0.152600
      7 C13         -4.0820     3.3570    -0.9110 c3         1 599       0.170800
      8 C14         -3.6510     1.9570    -0.4960 c3         1 599      -0.101400
      9 C15         -3.0700     1.2040    -1.6860 c3         1 599       0.084600
     10 N16         -2.5150    -0.0760    -1.3040 na         1 599       0.149800
     11 N21         -1.3060    -0.1310    -0.7630 nc         1 599      -0.517800
     12 C22         -1.1030    -1.3990    -0.4310 cd         1 599       0.322500
     13 C23         -2.2360    -2.1760    -0.7590 cd         1 599      -0.202300
     14 C24         -3.1150    -1.2820    -1.3250 cc         1 599      -0.144300
     15 C30         -4.4330    -1.6410    -1.9100 c6         1 599      -0.032100
     16 C31         -4.3850    -3.1410    -2.1930 c6         1 599       0.107000
     17 N32         -3.9310    -3.8690    -1.0210 n          1 599      -0.421800
     18 C33         -2.5450    -3.6360    -0.6410 c6         1 599       0.179300
     19 C39          0.1840    -1.7970     0.1460 ca         1 599      -0.112500
     20 C41          0.3430    -2.9920     0.8480 ca         1 599      -0.082000
     21 C42          1.5680    -3.3490     1.3890 ca         1 599      -0.109000
     22 C43          2.6580    -2.5130     1.2350 ca         1 599       0.139000
     23 C44          2.5360    -1.3060     0.5380 ca         1 599       0.031000
     24 C45          1.2940    -0.9670     0.0030 ca         1 599      -0.058000
     25 C52          3.6470    -0.4400     0.3660 cg         1 599      -0.093000
     26 C53          4.5910     0.2960     0.2150 ch         1 599      -0.096000
     27 C54          5.7140     1.1510     0.0510 ca         1 599       0.032000
     28 C58          5.6250     2.3030    -0.7350 ca         1 599      -0.079500
     29 C59          6.7220     3.1320    -0.8920 ca         1 599      -0.106500
     30 C60          7.9140     2.8080    -0.2610 ca         1 599       0.124000
     31 C61          8.0260     1.6690     0.5240 ca         1 599      -0.106500
     32 C62          6.9260     0.8440     0.6770 ca         1 599      -0.079500
     33 C69         -4.7290    -4.6280    -0.2370 c          1 599       0.603100
     34 C70         -6.1810    -4.7680    -0.6730 c3         1 599       0.084600
     35 O71         -6.8440    -5.5510     0.2740 oh         1 599      -0.619000
     36 O77         -4.3270    -5.1920     0.7670 o          1 599      -0.561100
     37 CL81         4.1810    -2.9650     1.9060 cl         1 599      -0.186000
     38 CL83         9.2870     3.8420    -0.4560 cl         1 599      -0.200000
     39 H1          -4.5240     5.9790    -0.7960 h1         1 599       0.042200
     40 H1A         -6.0100     5.1110    -1.1920 h1         1 599       0.042200
     41 H3          -3.5790     3.4320     1.7360 h1         1 599       0.042200
     42 H3A         -3.0180     4.9310     0.9920 h1         1 599       0.042200
     43 H4          -5.5000     4.5000     2.7290 h1         1 599       0.052200
     44 H4A         -4.0370     5.3980     3.1650 h1         1 599       0.052200
     45 H6          -6.4110     7.0370     0.3330 h1         1 599       0.052200
     46 H6A         -6.9350     5.4900     1.0200 h1         1 599       0.052200
     47 H13         -4.7690     3.2780    -1.7590 h1         1 599       0.031200
     48 H13A        -3.2000     3.9120    -1.2760 h1         1 599       0.031200
     49 H14         -2.8910     1.9990     0.2870 hc         1 599       0.065700
     50 H14A        -4.5080     1.4120    -0.0910 hc         1 599       0.065700
     51 H15         -3.8330     1.0310    -2.4460 h1         1 599       0.063700
     52 H15A        -2.2710     1.7800    -2.1550 h1         1 599       0.063700
     53 H30         -5.2510    -1.4110    -1.2210 hc         1 599       0.062200
     54 H30A        -4.6300    -1.0980    -2.8370 hc         1 599       0.062200
     55 H31         -5.3530    -3.5000    -2.5280 h1         1 599       0.054700
     56 H31A        -3.6840    -3.3330    -3.0090 h1         1 599       0.054700
     57 H33         -1.8780    -4.2300    -1.2760 h1         1 599       0.069700
     58 H33A        -2.4140    -3.9930     0.3780 h1         1 599       0.069700
     59 H41         -0.4910    -3.6610     1.0030 ha         1 599       0.125000
     60 H42          1.6660    -4.2780     1.9340 ha         1 599       0.134000
     61 H45          1.2040    -0.0360    -0.5410 ha         1 599       0.138000
     62 H58          4.6940     2.5500    -1.2260 ha         1 599       0.126000
     63 H59          6.6470     4.0220    -1.5030 ha         1 599       0.131500
     64 H61          8.9600     1.4260     1.0130 ha         1 599       0.131500
     65 H62          7.0070    -0.0450     1.2880 ha         1 599       0.126000
     66 H70         -6.6270    -3.7680    -0.7670 h1         1 599       0.030200
     67 H70A        -6.2100    -5.2200    -1.6740 h1         1 599       0.030200
     68 HO71        -7.7570    -5.6380    -0.0130 ho         1 599       0.444000
@<TRIPOS>BOND
     1     1     2 1   
     2     1     6 1   
     3     1    39 1   
     4     1    40 1   
     5     2     3 1   
     6     2     7 1   
     7     3     4 1   
     8     3    41 1   
     9     3    42 1   
    10     4     5 1   
    11     4    43 1   
    12     4    44 1   
    13     5     6 1   
    14     6    45 1   
    15     6    46 1   
    16     7     8 1   
    17     7    47 1   
    18     7    48 1   
    19     8     9 1   
    20     8    49 1   
    21     8    50 1   
    22     9    10 1   
    23     9    51 1   
    24     9    52 1   
    25    10    11 1   
    26    10    14 1   
    27    11    12 2   
    28    12    13 1   
    29    12    19 1   
    30    13    14 2   
    31    13    18 1   
    32    14    15 1   
    33    15    16 1   
    34    15    53 1   
    35    15    54 1   
    36    16    17 1   
    37    16    55 1   
    38    16    56 1   
    39    17    18 1   
    40    17    33 1   
    41    18    57 1   
    42    18    58 1   
    43    19    20 ar  
    44    19    24 ar  
    45    20    21 ar  
    46    20    59 1   
    47    21    22 ar  
    48    21    60 1   
    49    22    23 ar  
    50    22    37 1   
    51    23    24 ar  
    52    23    25 1   
    53    24    61 1   
    54    25    26 3   
    55    26    27 1   
    56    27    28 ar  
    57    27    32 ar  
    58    28    29 ar  
    59    28    62 1   
    60    29    30 ar  
    61    29    63 1   
    62    30    31 ar  
    63    30    38 1   
    64    31    32 ar  
    65    31    64 1   
    66    32    65 1   
    67    33    34 1   
    68    33    36 2   
    69    34    35 1   
    70    34    66 1   
    71    34    67 1   
    72    35    68 1   
@<TRIPOS>SUBSTRUCTURE
     1 599         1 TEMP              0 ****  ****    0 ROOT
