@<TRIPOS>MOLECULE
599
   68    72     1     0     0
SMALL
No Charge or Current Charge


@<TRIPOS>ATOM
      1 C1          -6.1680     5.5960    -0.5480 c6         1 599       0.123300
      2 N2          -5.5160     4.4330     0.1320 n3         1 599      -0.711600
      3 C3          -5.0460     4.8260     1.5010 c6         1 599       0.123300
      4 C4          -6.1820     5.4860     2.3380 c6         1 599       0.152600
      5 O5          -6.7490     6.6100     1.6230 os         1 599      -0.447000
      6 C6          -7.2830     6.2350     0.3320 c6         1 599       0.152600
      7 C13         -4.4710     3.8050    -0.7120 c3         1 599       0.170800
      8 C14         -3.9250     2.4700    -0.1670 c3         1 599      -0.101400
      9 C15         -2.9700     1.7730    -1.1580 c3         1 599       0.084600
     10 N16         -2.4430     0.4960    -0.6480 na         1 599       0.149800
     11 N21         -1.1470     0.4130    -0.1730 nc         1 599      -0.517800
     12 C22         -1.0360    -0.8550     0.1970 cd         1 599       0.322500
     13 C23         -2.2260    -1.5790    -0.0570 cd         1 599      -0.202300
     14 C24         -3.1170    -0.7170    -0.5830 cc         1 599      -0.144300
     15 C30         -4.4860    -1.1230    -1.0170 c6         1 599      -0.032100
     16 C31         -4.4180    -2.5780    -1.5520 c6         1 599       0.107000
     17 N32         -3.6250    -3.5620    -0.7280 n          1 599      -0.421800
     18 C33         -2.5230    -3.0440     0.1550 c6         1 599       0.179300
     19 C39          0.2300    -1.3760     0.7520 ca         1 599      -0.112500
     20 C41          0.2260    -2.3300     1.7920 ca         1 599      -0.082000
     21 C42          1.4350    -2.7880     2.3420 ca         1 599      -0.109000
     22 C43          2.6620    -2.2890     1.8760 ca         1 599       0.139000
     23 C44          2.6810    -1.3110     0.8580 ca         1 599       0.031000
     24 C45          1.4660    -0.8550     0.3110 ca         1 599      -0.058000
     25 C52          3.9170    -0.7680     0.3680 cg         1 599      -0.093000
     26 C53          4.9740    -0.3150    -0.0390 ch         1 599      -0.096000
     27 C54          6.2190     0.2020    -0.5010 ca         1 599       0.032000
     28 C58          6.2470     1.1970    -1.4960 ca         1 599      -0.079500
     29 C59          7.4770     1.7060    -1.9510 ca         1 599      -0.106500
     30 C60          8.6800     1.2200    -1.4120 ca         1 599       0.124000
     31 C61          8.6570     0.2270    -0.4190 ca         1 599      -0.106500
     32 C62          7.4270    -0.2830     0.0370 ca         1 599      -0.079500
     33 C69         -3.7410    -4.9590    -0.9370 c          1 599       0.603100
     34 C70         -4.8410    -5.4760    -1.9270 c3         1 599       0.084600
     35 O71         -4.8410    -6.9130    -2.1260 oh         1 599      -0.619000
     36 O77         -3.0040    -5.7330    -0.3320 o          1 599      -0.561100
     37 Cl81         4.1540    -2.8970     2.6020 cl         1 599      -0.186000
     38 Cl83        10.2170     1.8560    -1.9810 cl         1 599      -0.200000
     39 H1          -5.4210     6.3690    -0.7830 h1         1 599       0.042200
     40 H1A         -6.6130     5.2800    -1.5030 h1         1 599       0.042200
     41 H3          -4.6830     3.9500     2.0560 h1         1 599       0.042200
     42 H3A         -4.2060     5.5330     1.4280 h1         1 599       0.042200
     43 H4          -6.9740     4.7500     2.5420 h1         1 599       0.052200
     44 H4A         -5.7840     5.8350     3.3010 h1         1 599       0.052200
     45 H6          -7.6870     7.1290    -0.1650 h1         1 599       0.052200
     46 H6A         -8.1070     5.5200     0.4730 h1         1 599       0.052200
     47 H13         -4.8900     3.6090    -1.7090 h1         1 599       0.031200
     48 H13A        -3.6320     4.5010    -0.8500 h1         1 599       0.031200
     49 H14         -3.3870     2.6420     0.7720 hc         1 599       0.065700
     50 H14A        -4.7660     1.8030     0.0560 hc         1 599       0.065700
     51 H15         -3.4980     1.5760    -2.1000 h1         1 599       0.063700
     52 H15A        -2.1270     2.4380    -1.3820 h1         1 599       0.063700
     53 H30         -5.1800    -1.0770    -0.1670 hc         1 599       0.062200
     54 H30A        -4.8880    -0.4560    -1.7910 hc         1 599       0.062200
     55 H31         -5.4510    -2.9340    -1.6690 h1         1 599       0.054700
     56 H31A        -3.9740    -2.5510    -2.5570 h1         1 599       0.054700
     57 H33         -1.6070    -3.6240    -0.0340 h1         1 599       0.069700
     58 H33A        -2.8070    -3.2150     1.2030 h1         1 599       0.069700
     59 H41         -0.7110    -2.7080     2.1920 ha         1 599       0.125000
     60 H42          1.4220    -3.5280     3.1390 ha         1 599       0.134000
     61 H45          1.4850    -0.0990    -0.4710 ha         1 599       0.138000
     62 H58          5.3180     1.5770    -1.9170 ha         1 599       0.126000
     63 H59          7.4980     2.4750    -2.7200 ha         1 599       0.131500
     64 H61          9.5890    -0.1470    -0.0040 ha         1 599       0.131500
     65 H62          7.4140    -1.0520     0.8060 ha         1 599       0.126000
     66 H70         -5.8140    -5.1530    -1.5340 h1         1 599       0.030200
     67 H70A        -4.6870    -4.9670    -2.8870 h1         1 599       0.030200
     68 HO71        -5.5670    -7.1220    -2.7560 ho         1 599       0.444000
@<TRIPOS>BOND
     1     1     2 1   
     2     1     6 1   
     3     1    39 1   
     4     1    40 1   
     5     2     3 1   
     6     2     7 1   
     7     3     4 1   
     8     3    41 1   
     9     3    42 1   
    10     4     5 1   
    11     4    43 1   
    12     4    44 1   
    13     5     6 1   
    14     6    45 1   
    15     6    46 1   
    16     7     8 1   
    17     7    47 1   
    18     7    48 1   
    19     8     9 1   
    20     8    49 1   
    21     8    50 1   
    22     9    10 1   
    23     9    51 1   
    24     9    52 1   
    25    10    11 1   
    26    10    14 1   
    27    11    12 2   
    28    12    13 1   
    29    12    19 1   
    30    13    14 2   
    31    13    18 1   
    32    14    15 1   
    33    15    16 1   
    34    15    53 1   
    35    15    54 1   
    36    16    17 1   
    37    16    55 1   
    38    16    56 1   
    39    17    18 1   
    40    17    33 1   
    41    18    57 1   
    42    18    58 1   
    43    19    20 ar  
    44    19    24 ar  
    45    20    21 ar  
    46    20    59 1   
    47    21    22 ar  
    48    21    60 1   
    49    22    23 ar  
    50    22    37 1   
    51    23    24 ar  
    52    23    25 1   
    53    24    61 1   
    54    25    26 3   
    55    26    27 1   
    56    27    28 ar  
    57    27    32 ar  
    58    28    29 ar  
    59    28    62 1   
    60    29    30 ar  
    61    29    63 1   
    62    30    31 ar  
    63    30    38 1   
    64    31    32 ar  
    65    31    64 1   
    66    32    65 1   
    67    33    34 1   
    68    33    36 2   
    69    34    35 1   
    70    34    66 1   
    71    34    67 1   
    72    35    68 1   
@<TRIPOS>SUBSTRUCTURE
     1 599         1 TEMP              0 ****  ****    0 ROOT
