@<TRIPOS>MOLECULE
59A
   37    37     1     0     0
SMALL
No Charge or Current Charge


@<TRIPOS>ATOM
      1 C2           2.1240     0.0120    -0.1620 cx         1 59A       0.026300
      2 O1           2.1630    -1.1070     0.7670 op         1 59A      -0.388000
      3 C3           1.1600    -0.0780     0.9940 cx         1 59A       0.018300
      4 C4          -0.2880    -0.4180     0.6910 c          1 59A       0.610100
      5 O4          -0.8160    -1.4680     1.0390 o          1 59A      -0.588100
      6 N1          -0.9640     0.5590    -0.0120 ns         1 59A      -0.453900
      7 C5          -2.3950     0.5040    -0.4050 c3         1 59A      -0.031300
      8 C6          -2.6590     1.4230    -1.6440 c          1 59A       0.723000
      9 O5          -3.3420     0.9750    -2.5550 o          1 59A      -0.721000
     10 C10         -3.3490     0.7940     0.7980 c3         1 59A      -0.046700
     11 C12         -4.8320     0.5000     0.4330 c3         1 59A      -0.070400
     12 C11         -3.1550     2.2160     1.3880 c3         1 59A      -0.078100
     13 C13         -5.8110     0.5270     1.6270 c3         1 59A      -0.086100
     14 OA          -2.0450     2.4800    -1.7330 o          1 59A      -0.721000
     15 C7           3.2510     1.0220    -0.0850 c          1 59A       0.602100
     16 O2           3.1280     2.1350     0.4120 o          1 59A      -0.494000
     17 O3           4.3950     0.5720    -0.6940 os         1 59A      -0.431100
     18 C8           5.5370     1.4450    -0.7160 c3         1 59A       0.167600
     19 C9           6.6700     0.7040    -1.4430 c3         1 59A      -0.096100
     20 H2           1.7790    -0.2280    -1.1670 h1         1 59A       0.141700
     21 H3           1.3270     0.5400     1.8750 h1         1 59A       0.088700
     22 HN1         -0.4430     1.3940    -0.2560 hn         1 59A       0.293500
     23 H5          -2.5900    -0.5220    -0.7420 h1         1 59A       0.055700
     24 H10         -3.0790     0.0860     1.5910 hc         1 59A       0.006700
     25 H121        -5.1780     1.2190    -0.3200 hc         1 59A       0.058200
     26 H122        -4.8930    -0.4920    -0.0320 hc         1 59A       0.058200
     27 H111        -3.7090     2.3310     2.3260 hc         1 59A       0.027033
     28 H112        -2.0990     2.4100     1.6110 hc         1 59A       0.027033
     29 H113        -3.5050     2.9840     0.6890 hc         1 59A       0.027033
     30 H131        -6.8100     0.2100     1.3050 hc         1 59A       0.016367
     31 H132        -5.4760    -0.1540     2.4190 hc         1 59A       0.016367
     32 H133        -5.8980     1.5350     2.0470 hc         1 59A       0.016367
     33 H81          5.8590     1.6950     0.3040 h1         1 59A       0.043200
     34 H82          5.3070     2.3770    -1.2500 h1         1 59A       0.043200
     35 H91          7.5670     1.3320    -1.4860 hc         1 59A       0.045700
     36 H92          6.9240    -0.2240    -0.9180 hc         1 59A       0.045700
     37 H93          6.3730     0.4560    -2.4700 hc         1 59A       0.045700
@<TRIPOS>BOND
     1     1     2 1   
     2     1     3 1   
     3     1    15 1   
     4     1    20 1   
     5     2     3 1   
     6     3     4 1   
     7     3    21 1   
     8     4     5 2   
     9     4     6 1   
    10     6     7 1   
    11     6    22 1   
    12     7     8 1   
    13     7    10 1   
    14     7    23 1   
    15     8     9 1   
    16     8    14 1   
    17    10    11 1   
    18    10    12 1   
    19    10    24 1   
    20    11    13 1   
    21    11    25 1   
    22    11    26 1   
    23    12    27 1   
    24    12    28 1   
    25    12    29 1   
    26    13    30 1   
    27    13    31 1   
    28    13    32 1   
    29    15    16 2   
    30    15    17 1   
    31    17    18 1   
    32    18    19 1   
    33    18    33 1   
    34    18    34 1   
    35    19    35 1   
    36    19    36 1   
    37    19    37 1   
@<TRIPOS>SUBSTRUCTURE
     1 59A         1 TEMP              0 ****  ****    0 ROOT
