@<TRIPOS>MOLECULE
59A
   37    37     1     0     0
SMALL
bcc


@<TRIPOS>ATOM
      1 C2           2.4500    -0.7000     0.1610 cx         1 59A       0.003100
      2 O1           2.0680    -1.6180     1.1500 op         1 59A      -0.341600
      3 C3           1.2330    -0.5060     0.9640 cx         1 59A      -0.004900
      4 C4          -0.0970    -0.7940     0.3180 c          1 59A       0.677100
      5 O4          -0.2360    -1.7410    -0.4420 o          1 59A      -0.588100
      6 N1          -1.0650     0.0530     0.6600 ns         1 59A      -0.520900
      7 C5          -2.3830     0.0040     0.0600 c3         1 59A      -0.031300
      8 C6          -2.3320     0.2760    -1.4650 c          1 59A       0.933600
      9 O5          -3.2560    -0.2350    -2.1290 o          1 59A      -0.826300
     10 C10         -3.3030     0.9940     0.8000 c3         1 59A      -0.046700
     11 C12         -4.7790     0.7260     0.4900 c3         1 59A      -0.070400
     12 C11         -2.9300     2.4530     0.5440 c3         1 59A      -0.078100
     13 C13         -5.7380     1.5080     1.3780 c3         1 59A      -0.086100
     14 OA          -1.4090     0.9930    -1.8850 o          1 59A      -0.826300
     15 C7           3.6460     0.1360     0.4990 c          1 59A       0.651100
     16 O2           4.0450     0.3100     1.6210 o          1 59A      -0.543000
     17 O3           4.1730     0.6590    -0.5890 os         1 59A      -0.407900
     18 C8           5.3070     1.5340    -0.4390 c3         1 59A       0.144400
     19 C9           5.7390     1.9690    -1.8170 c3         1 59A      -0.096100
     20 H2           2.3560    -1.0310    -0.8700 h1         1 59A       0.141700
     21 H3           1.2520     0.2330     1.7640 h1         1 59A       0.088700
     22 HN1         -0.8390     0.8170     1.2760 hn         1 59A       0.293500
     23 H5          -2.7850    -1.0010     0.2200 h1         1 59A       0.055700
     24 H10         -3.1630     0.7920     1.8710 hc         1 59A       0.006700
     25 H121        -4.9790     0.9540    -0.5580 hc         1 59A       0.058200
     26 H122        -4.9750    -0.3430     0.6130 hc         1 59A       0.058200
     27 H111        -3.4780     3.1160     1.2130 hc         1 59A       0.027033
     28 H112        -1.8690     2.6490     0.7060 hc         1 59A       0.027033
     29 H113        -3.1630     2.7490    -0.4800 hc         1 59A       0.027033
     30 H131        -6.7720     1.2370     1.1650 hc         1 59A       0.016367
     31 H132        -5.5570     1.3050     2.4360 hc         1 59A       0.016367
     32 H133        -5.6500     2.5850     1.2300 hc         1 59A       0.016367
     33 H81          6.1090     1.0040     0.0760 h1         1 59A       0.043200
     34 H82          5.0200     2.3920     0.1740 h1         1 59A       0.043200
     35 H91          6.5900     2.6430    -1.7240 hc         1 59A       0.045700
     36 H92          6.0510     1.1210    -2.4260 hc         1 59A       0.045700
     37 H93          4.9450     2.5020    -2.3390 hc         1 59A       0.045700
@<TRIPOS>BOND
     1     1     2 1   
     2     1     3 1   
     3     1    15 1   
     4     1    20 1   
     5     2     3 1   
     6     3     4 1   
     7     3    21 1   
     8     4     5 2   
     9     4     6 1   
    10     6     7 1   
    11     6    22 1   
    12     7     8 1   
    13     7    10 1   
    14     7    23 1   
    15     8     9 1   
    16     8    14 1   
    17    10    11 1   
    18    10    12 1   
    19    10    24 1   
    20    11    13 1   
    21    11    25 1   
    22    11    26 1   
    23    12    27 1   
    24    12    28 1   
    25    12    29 1   
    26    13    30 1   
    27    13    31 1   
    28    13    32 1   
    29    15    16 2   
    30    15    17 1   
    31    17    18 1   
    32    18    19 1   
    33    18    33 1   
    34    18    34 1   
    35    19    35 1   
    36    19    36 1   
    37    19    37 1   
@<TRIPOS>SUBSTRUCTURE
     1 59A         1 TEMP              0 ****  ****    0 ROOT
