@<TRIPOS>MOLECULE
59E
   52    56     1     0     0
SMALL
abcg2


@<TRIPOS>ATOM
      1 CAW         -5.6720    -5.8720    -9.1430 c3         1 59E       0.152900
      2 OAU         -6.6170    -6.8450    -8.6520 os         1 59E      -0.458100
      3 CAT         -6.4910    -8.0950    -9.1110 c          1 59E       0.598100
      4 OAV         -5.6570    -8.4260    -9.9240 o          1 59E      -0.481000
      5 CAS         -7.5190    -9.0230    -8.5140 c3         1 59E      -0.109400
      6 CAI         -7.6380    -8.8520    -7.0040 c3         1 59E       0.103200
      7 NAH         -6.3180    -9.0320    -6.3880 n2         1 59E      -0.566900
      8 CAJ         -8.5520    -9.8550    -6.3890 cc         1 59E       0.385800
      9 NAN         -9.0500   -10.9550    -6.8810 nd         1 59E      -0.341000
     10 NAO         -9.7300   -11.5940    -5.8540 nd         1 59E      -0.360000
     11 CAP         -9.6200   -10.8630    -4.7720 cc         1 59E       0.412800
     12 CAR        -10.1740   -11.2060    -3.4390 c3         1 59E      -0.123400
     13 NAK         -8.8790    -9.7400    -5.0610 na         1 59E      -0.286800
     14 CAE         -8.5230    -8.6330    -4.2460 ca         1 59E      -0.020200
     15 CAF         -9.4750    -8.0410    -3.4280 ca         1 59E      -0.079000
     16 CAA         -9.1600    -6.9370    -2.6500 ca         1 59E      -0.173000
     17 CAB         -7.8720    -6.4030    -2.7050 ca         1 59E       0.138100
     18 OAL         -7.4650    -5.3140    -2.0080 os         1 59E      -0.342100
     19 CAM         -8.4090    -4.6660    -1.1520 c3         1 59E       0.147900
     20 CAC         -6.9140    -7.0030    -3.5200 ca         1 59E      -0.105000
     21 CAD         -7.2170    -8.1160    -4.2970 ca         1 59E      -0.146900
     22 CAG         -6.1480    -8.7020    -5.1620 ce         1 59E       0.539500
     23 CAQ         -4.8120    -8.8950    -4.5550 ca         1 59E      -0.097900
     24 CBB         -3.6260    -8.8070    -5.3200 ca         1 59E      -0.053800
     25 CBE         -3.3210    -8.4900    -6.6840 cc         1 59E      -0.221200
     26 CBD         -1.9560    -8.5270    -6.8120 cd         1 59E      -0.158100
     27 NBC         -1.3880    -8.8510    -5.6050 na         1 59E      -0.234700
     28 CBA         -2.3780    -9.0280    -4.6690 ca         1 59E      -0.059200
     29 CAZ         -2.2770    -9.3540    -3.3200 ca         1 59E      -0.108000
     30 CAY         -3.4550    -9.4470    -2.5950 ca         1 59E      -0.105000
     31 CAX         -4.6960    -9.2110    -3.2020 ca         1 59E      -0.112000
     32 H1          -5.9460    -4.9360    -8.6660 h1         1 59E       0.048700
     33 H2          -4.6600    -6.1610    -8.8630 h1         1 59E       0.048700
     34 H3          -5.7460    -5.7870   -10.2260 h1         1 59E       0.048700
     35 H4          -8.4830    -8.8130    -8.9840 hc         1 59E       0.094700
     36 H5          -7.2330   -10.0420    -8.7640 hc         1 59E       0.094700
     37 H6          -8.0270    -7.8530    -6.7800 h1         1 59E       0.077700
     38 H7         -10.4110   -12.2680    -3.4210 hc         1 59E       0.061033
     39 H8          -9.4550   -10.9860    -2.6490 hc         1 59E       0.061033
     40 H9         -11.0880   -10.6460    -3.2270 hc         1 59E       0.061033
     41 H10        -10.4830    -8.4310    -3.4110 ha         1 59E       0.128000
     42 H11         -9.9250    -6.4950    -2.0300 ha         1 59E       0.126000
     43 H12         -7.8760    -3.8340    -0.7000 h1         1 59E       0.046033
     44 H13         -9.2610    -4.2910    -1.7240 h1         1 59E       0.046033
     45 H14         -8.7610    -5.3460    -0.3730 h1         1 59E       0.046033
     46 H15         -5.9170    -6.5850    -3.5440 ha         1 59E       0.148000
     47 H16         -4.0210    -8.2800    -7.4710 ha         1 59E       0.220000
     48 H17         -1.3380    -8.3500    -7.6770 h4         1 59E       0.215000
     49 H18         -0.4010    -8.9470    -5.4340 hn         1 59E       0.350000
     50 H19         -1.3140    -9.5220    -2.8560 ha         1 59E       0.114000
     51 H20         -3.4210    -9.7020    -1.5440 ha         1 59E       0.114000
     52 H21         -5.5910    -9.2910    -2.6000 ha         1 59E       0.113000
@<TRIPOS>BOND
     1     1     2 1   
     2     1    32 1   
     3     1    33 1   
     4     1    34 1   
     5     2     3 1   
     6     3     4 2   
     7     3     5 1   
     8     5     6 1   
     9     5    35 1   
    10     5    36 1   
    11     6     7 1   
    12     6     8 1   
    13     6    37 1   
    14     7    22 2   
    15     8     9 2   
    16     8    13 1   
    17     9    10 1   
    18    10    11 2   
    19    11    12 1   
    20    11    13 1   
    21    12    38 1   
    22    12    39 1   
    23    12    40 1   
    24    13    14 1   
    25    14    15 ar  
    26    14    21 ar  
    27    15    16 ar  
    28    15    41 1   
    29    16    17 ar  
    30    16    42 1   
    31    17    18 1   
    32    17    20 ar  
    33    18    19 1   
    34    19    43 1   
    35    19    44 1   
    36    19    45 1   
    37    20    21 ar  
    38    20    46 1   
    39    21    22 1   
    40    22    23 1   
    41    23    24 ar  
    42    23    31 ar  
    43    24    25 1   
    44    24    28 ar  
    45    25    26 2   
    46    25    47 1   
    47    26    27 1   
    48    26    48 1   
    49    27    28 1   
    50    27    49 1   
    51    28    29 ar  
    52    29    30 ar  
    53    29    50 1   
    54    30    31 ar  
    55    30    51 1   
    56    31    52 1   
@<TRIPOS>SUBSTRUCTURE
     1 59E         1 TEMP              0 ****  ****    0 ROOT
