@<TRIPOS>MOLECULE
59E
   52    56     1     0     0
SMALL
No Charge or Current Charge


@<TRIPOS>ATOM
      1 CAW         -6.7280    -5.6920   -10.2550 c3         1 59E       0.152900
      2 OAU         -7.3150    -6.8490    -9.6310 os         1 59E      -0.458100
      3 CAT         -6.4800    -7.8710    -9.2540 c          1 59E       0.598100
      4 OAV         -5.2650    -7.8580    -9.4010 o          1 59E      -0.481000
      5 CAS         -7.2510    -9.0070    -8.5880 c3         1 59E      -0.109400
      6 CAI         -7.4480    -8.7520    -7.0740 c3         1 59E       0.103200
      7 NAH         -6.1440    -8.8040    -6.3850 n2         1 59E      -0.566900
      8 CAJ         -8.4070    -9.7230    -6.4100 cc         1 59E       0.385800
      9 NAN         -8.9180   -10.8440    -6.9040 nd         1 59E      -0.341000
     10 NAO         -9.6540   -11.4590    -5.9040 nd         1 59E      -0.360000
     11 CAP         -9.5780   -10.7130    -4.8100 cc         1 59E       0.412800
     12 CAR        -10.1640   -11.0710    -3.4730 c3         1 59E      -0.123400
     13 NAK         -8.8230    -9.6080    -5.1180 na         1 59E      -0.286800
     14 CAE         -8.4560    -8.5630    -4.2670 ca         1 59E      -0.020200
     15 CAF         -9.4330    -7.9470    -3.4590 ca         1 59E      -0.079000
     16 CAA         -9.0950    -6.8900    -2.5980 ca         1 59E      -0.173000
     17 CAB         -7.7670    -6.4260    -2.5460 ca         1 59E       0.138100
     18 OAL         -7.3720    -5.3890    -1.7250 os         1 59E      -0.342100
     19 CAM         -8.2900    -4.7110    -0.8480 c3         1 59E       0.147900
     20 CAC         -6.7960    -7.0210    -3.3640 ca         1 59E      -0.105000
     21 CAD         -7.1170    -8.0890    -4.2330 ca         1 59E      -0.146900
     22 CAG         -6.0180    -8.6580    -5.0950 ce         1 59E       0.539500
     23 CAQ         -4.7200    -8.9980    -4.4150 ca         1 59E      -0.097900
     24 CBB         -3.4600    -8.9230    -5.0530 ca         1 59E      -0.053800
     25 CBE         -3.0800    -8.4700    -6.3620 cc         1 59E      -0.221200
     26 CBD         -1.7000    -8.5830    -6.4630 cd         1 59E      -0.158100
     27 NBC         -1.1970    -9.0960    -5.2440 na         1 59E      -0.234700
     28 CBA         -2.2960    -9.2800    -4.4200 ca         1 59E      -0.059200
     29 CAZ         -2.2930    -9.7560    -3.1040 ca         1 59E      -0.108000
     30 CAY         -3.5270    -9.8670    -2.4370 ca         1 59E      -0.105000
     31 CAX         -4.7270    -9.4990    -3.0860 ca         1 59E      -0.112000
     32 H1          -7.5050    -4.9580   -10.5040 h1         1 59E       0.048700
     33 H2          -6.0060    -5.2080    -9.5840 h1         1 59E       0.048700
     34 H3          -6.2110    -5.9670   -11.1840 h1         1 59E       0.048700
     35 H4          -8.2520    -9.0420    -9.0330 hc         1 59E       0.094700
     36 H5          -6.7230    -9.9550    -8.7410 hc         1 59E       0.094700
     37 H6          -7.8880    -7.7500    -6.9640 h1         1 59E       0.077700
     38 H7         -10.2850   -12.1560    -3.3800 hc         1 59E       0.061033
     39 H8          -9.5150   -10.7370    -2.6560 hc         1 59E       0.061033
     40 H9         -11.1500   -10.6100    -3.3450 hc         1 59E       0.061033
     41 H10        -10.4690    -8.2750    -3.5030 ha         1 59E       0.128000
     42 H11         -9.8750    -6.4440    -1.9890 ha         1 59E       0.126000
     43 H12         -7.7700    -3.9260    -0.2860 h1         1 59E       0.046033
     44 H13         -9.0990    -4.2390    -1.4200 h1         1 59E       0.046033
     45 H14         -8.7300    -5.4110    -0.1270 h1         1 59E       0.046033
     46 H15         -5.7770    -6.6410    -3.3250 ha         1 59E       0.148000
     47 H16         -3.7320    -8.0970    -7.1470 ha         1 59E       0.220000
     48 H17         -1.0470    -8.3380    -7.2990 h4         1 59E       0.215000
     49 H18         -0.2250    -9.2870    -5.0150 hn         1 59E       0.350000
     50 H19         -1.3650   -10.0370    -2.6110 ha         1 59E       0.114000
     51 H20         -3.5580   -10.2440    -1.4170 ha         1 59E       0.114000
     52 H21         -5.6670    -9.6110    -2.5510 ha         1 59E       0.113000
@<TRIPOS>BOND
     1     1     2 1   
     2     1    32 1   
     3     1    33 1   
     4     1    34 1   
     5     2     3 1   
     6     3     4 2   
     7     3     5 1   
     8     5     6 1   
     9     5    35 1   
    10     5    36 1   
    11     6     7 1   
    12     6     8 1   
    13     6    37 1   
    14     7    22 2   
    15     8     9 2   
    16     8    13 1   
    17     9    10 1   
    18    10    11 2   
    19    11    12 1   
    20    11    13 1   
    21    12    38 1   
    22    12    39 1   
    23    12    40 1   
    24    13    14 1   
    25    14    15 ar  
    26    14    21 ar  
    27    15    16 ar  
    28    15    41 1   
    29    16    17 ar  
    30    16    42 1   
    31    17    18 1   
    32    17    20 ar  
    33    18    19 1   
    34    19    43 1   
    35    19    44 1   
    36    19    45 1   
    37    20    21 ar  
    38    20    46 1   
    39    21    22 1   
    40    22    23 1   
    41    23    24 ar  
    42    23    31 ar  
    43    24    25 1   
    44    24    28 ar  
    45    25    26 2   
    46    25    47 1   
    47    26    27 1   
    48    26    48 1   
    49    27    28 1   
    50    27    49 1   
    51    28    29 ar  
    52    29    30 ar  
    53    29    50 1   
    54    30    31 ar  
    55    30    51 1   
    56    31    52 1   
@<TRIPOS>SUBSTRUCTURE
     1 59E         1 TEMP              0 ****  ****    0 ROOT
