@<TRIPOS>MOLECULE
59F
   65    67     1     0     0
SMALL
No Charge or Current Charge


@<TRIPOS>ATOM
      1 C11          0.8620     8.3210    22.7550 c          1 59F       0.654100
      2 C13          4.4830     9.4610    23.1100 c6         1 59F       0.087000
      3 C14         -2.7750     8.5140    24.4250 ca         1 59F      -0.040000
      4 C15         -2.9380     8.8510    22.0210 ca         1 59F      -0.040000
      5 C17          3.7020     8.9590    25.4250 c          1 59F       0.491000
      6 S01         -4.8250     5.6520    25.5410 ss         1 59F      -0.540000
      7 O01         -3.2920     2.8740    21.4350 o          1 59F      -0.513100
      8 O03         -7.5190     5.9650    20.9630 o          1 59F      -0.723500
      9 O04         -5.8760     7.2820    20.6420 o          1 59F      -0.723500
     10 O05          0.6020     8.7430    21.6380 o          1 59F      -0.619100
     11 O07          3.8520     8.9630    26.6450 o          1 59F      -0.513000
     12 N01         -5.9800     4.8220    23.1350 n7         1 59F      -0.861400
     13 N02         -2.9090     5.1700    23.0050 ns         1 59F      -0.464900
     14 N03         -0.0180     7.5000    23.4070 ns         1 59F      -0.485900
     15 N04          2.0670     8.6550    23.4150 n          1 59F      -0.392400
     16 N05          4.6520     9.5570    24.5700 n          1 59F      -0.411800
     17 C01         -5.0340     4.4050    24.1930 c6         1 59F       0.356500
     18 C02         -3.6540     4.0150    23.5810 c3         1 59F       0.004700
     19 C03         -3.8170     2.8830    22.5470 c          1 59F       0.587900
     20 C07         -6.0240     6.3060    22.8310 c6         1 59F       0.049500
     21 C04         -6.6970     7.1190    23.9930 c6         1 59F      -0.072700
     22 C05         -6.4630     6.4820    25.3880 c6         1 59F       0.080600
     23 C06         -1.7720     5.7300    23.5460 c          1 59F       0.602100
     24 C08         -8.2170     7.3860    23.7880 c3         1 59F      -0.078100
     25 CA          -1.3320     7.0730    22.8920 c3         1 59F       0.105000
     26 C09         -6.6180     6.6730    21.4020 c          1 59F       0.723000
     27 C10         -2.3730     8.1700    23.1170 ca         1 59F      -0.151300
     28 C12          3.0020     9.5650    22.6770 c6         1 59F       0.087000
     29 C16          2.4170     8.2780    24.7460 c          1 59F       0.490000
     30 C19          5.8560    10.2350    25.1020 c3         1 59F       0.100000
     31 C20         -3.7290     9.5260    24.6310 ca         1 59F      -0.164500
     32 C21         -3.8930     9.8610    22.2310 ca         1 59F      -0.164500
     33 C22         -4.2870    10.1980    23.5330 ca         1 59F       0.127100
     34 C23          7.1090     9.3440    25.0490 c3         1 59F      -0.115100
     35 H1           4.8880     8.4950    22.7750 h1         1 59F       0.057200
     36 H2           5.0620    10.2500    22.6100 h1         1 59F       0.057200
     37 H3          -2.3510     7.9980    25.2840 ha         1 59F       0.126000
     38 H4          -2.6370     8.6020    21.0050 ha         1 59F       0.126000
     39 H6          -5.3490    11.2950    24.6900 ho         1 59F       0.451000
     40 H7          -6.9270     4.5300    23.3980 hn         1 59F       0.439000
     41 H9          -3.3480     5.6770    22.2450 hn         1 59F       0.345500
     42 H10          0.2810     7.1580    24.3160 hn         1 59F       0.376500
     43 H11         -5.4560     3.5040    24.6660 h2         1 59F       0.051700
     44 H12         -3.0650     3.5820    24.3980 h1         1 59F       0.092700
     45 H13         -4.4540     2.0330    22.8780 h4         1 59F      -0.013800
     46 H14         -4.9850     6.6590    22.7820 h1         1 59F       0.052700
     47 H15         -6.2270     8.1110    23.9990 hc         1 59F       0.063700
     48 H16         -6.5460     7.2480    26.1730 h1         1 59F       0.050200
     49 H17         -7.2300     5.7190    25.5840 h1         1 59F       0.050200
     50 H18         -8.6390     7.9270    24.6440 hc         1 59F       0.033367
     51 H19         -8.4050     8.0000    22.9000 hc         1 59F       0.033367
     52 H20         -8.7770     6.4500    23.6790 hc         1 59F       0.033367
     53 H21         -1.2360     6.8740    21.8160 h1         1 59F       0.084700
     54 H22          2.6650    10.6010    22.8230 h1         1 59F       0.078700
     55 H23          2.9600     9.3630    21.5970 h1         1 59F       0.078700
     56 H24          5.6830    10.5560    26.1380 h1         1 59F       0.059200
     57 H25          6.0400    11.1440    24.5140 h1         1 59F       0.059200
     58 H26         -4.0310     9.7770    25.6450 ha         1 59F       0.127000
     59 H27         -4.3270    10.3800    21.3810 ha         1 59F       0.127000
     60 H28          7.9760     9.8820    25.4520 hc         1 59F       0.043033
     61 H29          6.9600     8.4350    25.6440 hc         1 59F       0.043033
     62 H30          7.3350     9.0510    24.0170 hc         1 59F       0.043033
     63 O06          1.7540     7.4720    25.3940 o          1 59F      -0.485000
     64 O           -5.2130    11.1800    23.7250 oh         1 59F      -0.540100
     65 O02         -1.1700     5.2090    24.4790 o          1 59F      -0.616100
@<TRIPOS>BOND
     1     1    10 2   
     2     1    14 1   
     3     1    15 1   
     4     2    16 1   
     5     2    28 1   
     6     2    35 1   
     7     2    36 1   
     8     3    27 ar  
     9     3    31 ar  
    10     3    37 1   
    11     4    27 ar  
    12     4    32 ar  
    13     4    38 1   
    14     5    11 2   
    15     5    16 1   
    16     5    29 1   
    17     6    17 1   
    18     6    22 1   
    19     7    19 2   
    20     8    26 1   
    21     9    26 1   
    22    12    17 1   
    23    12    20 1   
    24    12    40 1   
    25    13    18 1   
    26    13    23 1   
    27    13    41 1   
    28    14    25 1   
    29    14    42 1   
    30    15    28 1   
    31    15    29 1   
    32    16    30 1   
    33    17    18 1   
    34    17    43 1   
    35    18    19 1   
    36    18    44 1   
    37    19    45 1   
    38    20    21 1   
    39    20    26 1   
    40    20    46 1   
    41    21    22 1   
    42    21    24 1   
    43    21    47 1   
    44    22    48 1   
    45    22    49 1   
    46    23    25 1   
    47    23    65 2   
    48    24    50 1   
    49    24    51 1   
    50    24    52 1   
    51    25    27 1   
    52    25    53 1   
    53    28    54 1   
    54    28    55 1   
    55    29    63 2   
    56    30    34 1   
    57    30    56 1   
    58    30    57 1   
    59    31    33 ar  
    60    31    58 1   
    61    32    33 ar  
    62    32    59 1   
    63    33    64 1   
    64    34    60 1   
    65    34    61 1   
    66    34    62 1   
    67    39    64 1   
@<TRIPOS>SUBSTRUCTURE
     1 59F         1 TEMP              0 ****  ****    0 ROOT
