@<TRIPOS>MOLECULE
59F
   65    67     1     0     0
SMALL
abcg2


@<TRIPOS>ATOM
      1 C11          0.7470     8.5920    22.9490 c          1 59F       0.654100
      2 C13          4.3330     9.4200    23.0710 c6         1 59F       0.087000
      3 C14         -2.4200     9.1290    24.5850 ca         1 59F      -0.040000
      4 C15         -3.3440     8.7960    22.3980 ca         1 59F      -0.040000
      5 C17          3.7270     9.0070    25.3880 c          1 59F       0.491000
      6 S01         -4.8750     5.8750    25.3960 ss         1 59F      -0.540000
      7 O01         -2.9210     3.1180    21.6030 o          1 59F      -0.513100
      8 O03         -7.2470     5.2130    20.7900 o          1 59F      -0.723500
      9 O04         -6.3460     7.2520    20.5470 o          1 59F      -0.723500
     10 O05          0.4610     9.1460    21.8960 o          1 59F      -0.619100
     11 O07          3.9000     8.9520    26.5990 o          1 59F      -0.513000
     12 N01         -5.7460     4.7240    23.0170 n7         1 59F      -0.861400
     13 N02         -2.7230     5.3880    23.1170 ns         1 59F      -0.464900
     14 N03         -0.0330     7.7020    23.5720 ns         1 59F      -0.485900
     15 N04          2.0050     8.8830    23.5730 n          1 59F      -0.392400
     16 N05          4.6280     9.4530    24.5010 n          1 59F      -0.411800
     17 C01         -4.8590     4.5020    24.1320 c6         1 59F       0.356500
     18 C02         -3.4000     4.2480    23.6790 c3         1 59F       0.004700
     19 C03         -3.4330     3.0970    22.6960 c          1 59F       0.587900
     20 C07         -5.9420     6.1120    22.5930 c6         1 59F       0.049500
     21 C04         -6.7670     6.9510    23.6200 c6         1 59F      -0.072700
     22 C05         -6.5770     6.4110    25.0450 c6         1 59F       0.080600
     23 C06         -1.8120     6.1090    23.7920 c          1 59F       0.602100
     24 C08         -8.2670     7.0110    23.3270 c3         1 59F      -0.078100
     25 CA          -1.3560     7.3900    23.0790 c3         1 59F       0.105000
     26 C09         -6.5610     6.1870    21.1820 c          1 59F       0.723000
     27 C10         -2.3810     8.4800    23.3530 ca         1 59F      -0.151300
     28 C12          2.8940     9.7960    22.8330 c6         1 59F       0.087000
     29 C16          2.3750     8.4810    24.8270 c          1 59F       0.490000
     30 C19          5.9810     9.8050    24.9340 c3         1 59F       0.100000
     31 C20         -3.4050    10.0660    24.8640 ca         1 59F      -0.164500
     32 C21         -4.3360     9.7280    22.6640 ca         1 59F      -0.164500
     33 C22         -4.3730    10.3610    23.9040 ca         1 59F       0.127100
     34 C23          6.9620     8.6490    24.7630 c3         1 59F      -0.115100
     35 H1           4.5520     8.4320    22.6540 h1         1 59F       0.057200
     36 H2           4.9760    10.1460    22.5770 h1         1 59F       0.057200
     37 H3          -1.6780     8.9000    25.3390 ha         1 59F       0.126000
     38 H4          -3.3280     8.2990    21.4350 ha         1 59F       0.126000
     39 H6          -5.3060    11.6140    25.0260 ho         1 59F       0.451000
     40 H7          -6.6380     4.2710    23.1610 hn         1 59F       0.439000
     41 H9          -2.9330     5.6390    22.1630 hn         1 59F       0.345500
     42 H10          0.2560     7.3310    24.4700 hn         1 59F       0.376500
     43 H11         -5.1850     3.5940    24.6390 h2         1 59F       0.051700
     44 H12         -2.8290     3.9180    24.5520 h1         1 59F       0.092700
     45 H13         -3.9740     2.2070    23.0610 h4         1 59F      -0.013800
     46 H14         -4.9580     6.5690    22.5330 h1         1 59F       0.052700
     47 H15         -6.3680     7.9670    23.5870 hc         1 59F       0.063700
     48 H16         -6.8150     7.1770    25.7820 h1         1 59F       0.050200
     49 H17         -7.2420     5.5650    25.2250 h1         1 59F       0.050200
     50 H18         -8.7810     7.5770    24.1080 hc         1 59F       0.033367
     51 H19         -8.4660     7.4960    22.3710 hc         1 59F       0.033367
     52 H20         -8.7040     6.0090    23.3000 hc         1 59F       0.033367
     53 H21         -1.3120     7.2120    22.0050 h1         1 59F       0.084700
     54 H22          2.7060    10.8250    23.1470 h1         1 59F       0.078700
     55 H23          2.6540     9.7070    21.7800 h1         1 59F       0.078700
     56 H24          5.9210    10.1060    25.9770 h1         1 59F       0.059200
     57 H25          6.2950    10.6680    24.3460 h1         1 59F       0.059200
     58 H26         -3.4320    10.5650    25.8260 ha         1 59F       0.127000
     59 H27         -5.0890     9.9630    21.9240 ha         1 59F       0.127000
     60 H28          7.9550     8.9570    25.0940 hc         1 59F       0.043033
     61 H29          6.6500     7.7890    25.3580 hc         1 59F       0.043033
     62 H30          7.0320     8.3420    23.7180 hc         1 59F       0.043033
     63 O06          1.7220     7.7420    25.5460 o          1 59F      -0.485000
     64 O           -5.3770    11.2580    24.1290 oh         1 59F      -0.540100
     65 O02         -1.4000     5.8230    24.9120 o          1 59F      -0.616100
@<TRIPOS>BOND
     1     1    10 2   
     2     1    14 1   
     3     1    15 1   
     4     2    16 1   
     5     2    28 1   
     6     2    35 1   
     7     2    36 1   
     8     3    27 ar  
     9     3    31 ar  
    10     3    37 1   
    11     4    27 ar  
    12     4    32 ar  
    13     4    38 1   
    14     5    11 2   
    15     5    16 1   
    16     5    29 1   
    17     6    17 1   
    18     6    22 1   
    19     7    19 2   
    20     8    26 1   
    21     9    26 1   
    22    12    17 1   
    23    12    20 1   
    24    12    40 1   
    25    13    18 1   
    26    13    23 1   
    27    13    41 1   
    28    14    25 1   
    29    14    42 1   
    30    15    28 1   
    31    15    29 1   
    32    16    30 1   
    33    17    18 1   
    34    17    43 1   
    35    18    19 1   
    36    18    44 1   
    37    19    45 1   
    38    20    21 1   
    39    20    26 1   
    40    20    46 1   
    41    21    22 1   
    42    21    24 1   
    43    21    47 1   
    44    22    48 1   
    45    22    49 1   
    46    23    25 1   
    47    23    65 2   
    48    24    50 1   
    49    24    51 1   
    50    24    52 1   
    51    25    27 1   
    52    25    53 1   
    53    28    54 1   
    54    28    55 1   
    55    29    63 2   
    56    30    34 1   
    57    30    56 1   
    58    30    57 1   
    59    31    33 ar  
    60    31    58 1   
    61    32    33 ar  
    62    32    59 1   
    63    33    64 1   
    64    34    60 1   
    65    34    61 1   
    66    34    62 1   
    67    39    64 1   
@<TRIPOS>SUBSTRUCTURE
     1 59F         1 TEMP              0 ****  ****    0 ROOT
