@<TRIPOS>MOLECULE
59G
   56    60     1     0     0
SMALL
No Charge or Current Charge


@<TRIPOS>ATOM
      1 C13          1.4360     0.1030    -1.4540 ca         1 59G      -0.075000
      2 C15          1.6060    -0.8010     0.7920 ca         1 59G      -0.075000
      3 C17          3.7220     0.0200    -0.3500 cp         1 59G      -0.062000
      4 C20          6.5280     0.4920    -0.3740 ca         1 59G      -0.021800
      5 C21          7.9490     0.7760    -0.1770 cc         1 59G      -0.122400
      6 C22          8.2040     1.1110     1.1490 cd         1 59G      -0.130400
      7 C24          5.7960     0.6220     0.7950 ca         1 59G      -0.166000
      8 C26          9.0450     0.7390    -1.1960 c          1 59G       0.730200
      9 C01         -5.8370    -4.1950     1.9410 c3         1 59G      -0.087100
     10 C03         -5.2080    -4.7090    -0.4820 c3         1 59G      -0.087100
     11 C04         -5.0440    -2.3490     0.4060 cc         1 59G       0.202300
     12 O05         -6.2610    -1.8480     0.0050 os         1 59G      -0.071700
     13 N06         -6.1140    -0.4420    -0.2610 nc         1 59G      -0.340300
     14 C07         -4.8410    -0.1980    -0.0070 cd         1 59G       0.346500
     15 C08         -4.1290    -1.3390     0.4100 cd         1 59G      -0.205300
     16 C09         -2.6700    -1.3830     0.7680 c3         1 59G       0.246900
     17 C11         -0.5650    -0.6960    -0.3150 ca         1 59G       0.118100
     18 C12          0.0500    -0.1290    -1.4400 ca         1 59G      -0.172000
     19 C14          2.2440    -0.2280    -0.3380 cp         1 59G      -0.031000
     20 C16          0.2190    -1.0350     0.8080 ca         1 59G      -0.172000
     21 C18          4.4800    -0.1110    -1.5450 ca         1 59G      -0.135000
     22 C19          5.8700     0.1200    -1.5640 ca         1 59G      -0.044000
     23 S23          6.7630     1.0970     2.1990 ss         1 59G      -0.073600
     24 C25          4.4130     0.3940     0.8310 ca         1 59G      -0.083000
     25 O27         10.1820     1.0120    -0.8330 o          1 59G      -0.715500
     26 O28          8.7940     0.4420    -2.3540 o          1 59G      -0.715500
     27 C29         -4.2810     1.1460    -0.1620 ca         1 59G      -0.120500
     28 C30         -3.8870     1.6140    -1.4330 ca         1 59G       0.152500
     29 Cl31        -4.0950     0.6140    -2.8700 cl         1 59G      -0.183500
     30 C32         -3.3050     2.8850    -1.5710 ca         1 59G      -0.105000
     31 C33         -3.1040     3.6970    -0.4430 ca         1 59G      -0.080000
     32 C34         -3.4810     3.2300     0.8270 ca         1 59G      -0.105000
     33 C35         -4.0610     1.9580     0.9680 ca         1 59G       0.152500
     34 Cl36        -4.5110     1.4020     2.5800 cl         1 59G      -0.183500
     35 H13          1.8840     0.5570    -2.3340 ha         1 59G       0.117500
     36 H15          2.1950    -1.0810     1.6620 ha         1 59G       0.117500
     37 H22          9.1670     1.3690     1.5790 h4         1 59G       0.225000
     38 H01         -5.5990    -3.5770     2.8160 hc         1 59G       0.043200
     39 H01A        -6.8950    -4.0470     1.6940 hc         1 59G       0.043200
     40 H01B        -5.6930    -5.2460     2.2200 hc         1 59G       0.043200
     41 H02         -3.9000    -4.0210     1.0590 hc         1 59G       0.065700
     42 H03         -6.2380    -4.5820    -0.8370 hc         1 59G       0.043200
     43 H03A        -4.5280    -4.4530    -1.3040 hc         1 59G       0.043200
     44 H03B        -5.0580    -5.7680    -0.2360 hc         1 59G       0.043200
     45 H09         -2.5020    -0.7480     1.6480 h1         1 59G       0.044700
     46 H09A        -2.3650    -2.4070     1.0160 h1         1 59G       0.044700
     47 H12         -0.5530     0.1380    -2.3050 ha         1 59G       0.113000
     48 H16         -0.2230    -1.4800     1.6940 ha         1 59G       0.113000
     49 H18          3.9900    -0.4100    -2.4680 ha         1 59G       0.098000
     50 H19          6.4100     0.0050    -2.4980 ha         1 59G       0.159000
     51 H25          3.8750     0.5210     1.7670 ha         1 59G       0.102000
     52 H32         -3.0060     3.2380    -2.5550 ha         1 59G       0.135000
     53 H33         -2.6520     4.6810    -0.5510 ha         1 59G       0.126000
     54 H34         -3.3200     3.8520     1.7050 ha         1 59G       0.135000
     55 O10         -1.9270    -0.8930    -0.3580 os         1 59G      -0.347100
     56 C02         -4.9310    -3.8170     0.7480 c3         1 59G      -0.099000
@<TRIPOS>BOND
     1     1    18 ar  
     2     1    19 ar  
     3     1    35 1   
     4     2    19 ar  
     5     2    20 ar  
     6     2    36 1   
     7     3    19 1   
     8     3    21 ar  
     9     3    24 ar  
    10     4     5 1   
    11     4     7 ar  
    12     4    22 ar  
    13     5     6 2   
    14     5     8 1   
    15     6    23 1   
    16     6    37 1   
    17     7    23 1   
    18     7    24 ar  
    19     8    25 1   
    20     8    26 1   
    21     9    38 1   
    22     9    39 1   
    23     9    40 1   
    24     9    56 1   
    25    10    42 1   
    26    10    43 1   
    27    10    44 1   
    28    10    56 1   
    29    11    12 1   
    30    11    15 2   
    31    11    56 1   
    32    12    13 1   
    33    13    14 2   
    34    14    15 1   
    35    14    27 1   
    36    15    16 1   
    37    16    45 1   
    38    16    46 1   
    39    16    55 1   
    40    17    18 ar  
    41    17    20 ar  
    42    17    55 1   
    43    18    47 1   
    44    20    48 1   
    45    21    22 ar  
    46    21    49 1   
    47    22    50 1   
    48    24    51 1   
    49    27    28 ar  
    50    27    33 ar  
    51    28    29 1   
    52    28    30 ar  
    53    30    31 ar  
    54    30    52 1   
    55    31    32 ar  
    56    31    53 1   
    57    32    33 ar  
    58    32    54 1   
    59    33    34 1   
    60    41    56 1   
@<TRIPOS>SUBSTRUCTURE
     1 59G         1 TEMP              0 ****  ****    0 ROOT
