@<TRIPOS>MOLECULE
59G
   56    60     1     0     0
SMALL
abcg2


@<TRIPOS>ATOM
      1 C13          1.3630    -0.0580    -1.4420 ca         1 59G      -0.075000
      2 C15          1.5980    -0.9580     0.7550 ca         1 59G      -0.075000
      3 C17          3.6160     0.0200    -0.3510 cp         1 59G      -0.062000
      4 C20          6.3630     0.6930    -0.4060 ca         1 59G      -0.021800
      5 C21          7.7370     1.0890    -0.1880 cc         1 59G      -0.122400
      6 C22          7.9480     1.4390     1.1050 cd         1 59G      -0.130400
      7 C24          5.5970     0.7660     0.7710 ca         1 59G      -0.166000
      8 C26          8.8470     1.1320    -1.2190 c          1 59G       0.730200
      9 C01         -6.1340    -4.0470     1.8880 c3         1 59G      -0.087100
     10 C03         -5.5080    -4.5570    -0.5130 c3         1 59G      -0.087100
     11 C04         -5.0450    -2.3150     0.4600 cc         1 59G       0.202300
     12 O05         -6.1590    -1.6660     0.1040 os         1 59G      -0.071700
     13 N06         -5.8870    -0.3560    -0.1460 nc         1 59G      -0.340300
     14 C07         -4.6150    -0.2150     0.0650 cd         1 59G       0.346500
     15 C08         -4.0110    -1.4370     0.4620 cd         1 59G      -0.205300
     16 C09         -2.5740    -1.6270     0.7660 c3         1 59G       0.246900
     17 C11         -0.5490    -1.0040    -0.3270 ca         1 59G       0.118100
     18 C12          0.0210    -0.3810    -1.4380 ca         1 59G      -0.172000
     19 C14          2.1840    -0.3360    -0.3440 cp         1 59G      -0.031000
     20 C16          0.2510    -1.2930     0.7750 ca         1 59G      -0.172000
     21 C18          4.3730    -0.0610    -1.5350 ca         1 59G      -0.135000
     22 C19          5.7110     0.2660    -1.5720 ca         1 59G      -0.044000
     23 S23          6.5530     1.3170     2.1100 ss         1 59G      -0.073600
     24 C25          4.2460     0.4420     0.8120 ca         1 59G      -0.083000
     25 O27          9.9640     1.4990    -0.8110 o          1 59G      -0.715500
     26 O28          8.5470     0.7990    -2.3810 o          1 59G      -0.715500
     27 C29         -3.9300     1.0760    -0.1090 ca         1 59G      -0.120500
     28 C30         -3.4620     1.4880    -1.3530 ca         1 59G       0.152500
     29 CL31        -3.7250     0.4820    -2.7310 cl         1 59G      -0.183500
     30 C32         -2.7780     2.6820    -1.5160 ca         1 59G      -0.105000
     31 C33         -2.5530     3.4850    -0.4090 ca         1 59G      -0.080000
     32 C34         -2.9980     3.1040     0.8460 ca         1 59G      -0.105000
     33 C35         -3.6770     1.9050     0.9800 ca         1 59G       0.152500
     34 CL36        -4.2160     1.4130     2.5480 cl         1 59G      -0.183500
     35 H13          1.7700     0.4450    -2.3100 ha         1 59G       0.117500
     36 H15          2.2020    -1.2160     1.6160 ha         1 59G       0.117500
     37 H22          8.8810     1.7720     1.5340 h4         1 59G       0.225000
     38 H01         -5.8600    -3.5040     2.7930 hc         1 59G       0.043200
     39 H01A        -7.1510    -3.7650     1.6150 hc         1 59G       0.043200
     40 H01B        -6.1350    -5.1110     2.1240 hc         1 59G       0.043200
     41 H02         -4.1550    -4.0900     1.0770 hc         1 59G       0.065700
     42 H03         -6.4990    -4.2910    -0.8830 hc         1 59G       0.043200
     43 H03A        -4.7870    -4.3790    -1.3110 hc         1 59G       0.043200
     44 H03B        -5.5080    -5.6260    -0.2960 hc         1 59G       0.043200
     45 H09         -2.2750    -0.9680     1.5900 h1         1 59G       0.044700
     46 H09A        -2.3670    -2.6550     1.0820 h1         1 59G       0.044700
     47 H12         -0.6020    -0.1410    -2.2900 ha         1 59G       0.113000
     48 H16         -0.1480    -1.7930     1.6480 ha         1 59G       0.113000
     49 H18          3.8980    -0.4090    -2.4440 ha         1 59G       0.098000
     50 H19          6.2660     0.1880    -2.4940 ha         1 59G       0.159000
     51 H25          3.6890     0.5400     1.7360 ha         1 59G       0.102000
     52 H32         -2.4260     2.9790    -2.4930 ha         1 59G       0.135000
     53 H33         -2.0200     4.4190    -0.5270 ha         1 59G       0.126000
     54 H34         -2.8200     3.7310     1.7090 ha         1 59G       0.135000
     55 O10         -1.8610    -1.2960    -0.4140 os         1 59G      -0.347100
     56 C02         -5.1490    -3.7720     0.7510 c3         1 59G      -0.099000
@<TRIPOS>BOND
     1     1    18 ar  
     2     1    19 ar  
     3     1    35 1   
     4     2    19 ar  
     5     2    20 ar  
     6     2    36 1   
     7     3    19 1   
     8     3    21 ar  
     9     3    24 ar  
    10     4     5 1   
    11     4     7 ar  
    12     4    22 ar  
    13     5     6 2   
    14     5     8 1   
    15     6    23 1   
    16     6    37 1   
    17     7    23 1   
    18     7    24 ar  
    19     8    25 1   
    20     8    26 1   
    21     9    38 1   
    22     9    39 1   
    23     9    40 1   
    24     9    56 1   
    25    10    42 1   
    26    10    43 1   
    27    10    44 1   
    28    10    56 1   
    29    11    12 1   
    30    11    15 2   
    31    11    56 1   
    32    12    13 1   
    33    13    14 2   
    34    14    15 1   
    35    14    27 1   
    36    15    16 1   
    37    16    45 1   
    38    16    46 1   
    39    16    55 1   
    40    17    18 ar  
    41    17    20 ar  
    42    17    55 1   
    43    18    47 1   
    44    20    48 1   
    45    21    22 ar  
    46    21    49 1   
    47    22    50 1   
    48    24    51 1   
    49    27    28 ar  
    50    27    33 ar  
    51    28    29 1   
    52    28    30 ar  
    53    30    31 ar  
    54    30    52 1   
    55    31    32 ar  
    56    31    53 1   
    57    32    33 ar  
    58    32    54 1   
    59    33    34 1   
    60    41    56 1   
@<TRIPOS>SUBSTRUCTURE
     1 59G         1 TEMP              0 ****  ****    0 ROOT
