@<TRIPOS>MOLECULE
59H
   56    58     1     0     0
SMALL
No Charge or Current Charge


@<TRIPOS>ATOM
      1 N1          -0.4420    -1.6630    -1.2210 ns         1 59H      -0.458900
      2 C3          -4.4550    -0.8280     2.7590 c          1 59H       0.705000
      3 N            2.8150    -0.3320     0.0590 ns         1 59H      -0.516900
      4 CA           1.7670    -0.5690    -0.9540 c3         1 59H       0.094000
      5 C            0.5530    -1.3190    -0.3310 c          1 59H       0.602100
      6 O            0.4630    -1.5750     0.8650 o          1 59H      -0.631100
      7 CX1          1.3290     0.7460    -1.6000 ca         1 59H      -0.101300
      8 CX2          1.6350     1.0100    -2.9500 ca         1 59H      -0.083500
      9 CX3          1.2260     2.2150    -3.5470 ca         1 59H      -0.108000
     10 CX4          0.5080     3.1640    -2.8000 ca         1 59H      -0.101000
     11 CX5          0.2020     2.9080    -1.4530 ca         1 59H      -0.108000
     12 CX6          0.6120     1.7050    -0.8540 ca         1 59H      -0.083500
     13 OX1          4.5550    -0.0920    -1.3650 o          1 59H      -0.576100
     14 NX1          4.9630     0.1160     0.8960 n          1 59H      -0.410400
     15 CX8          4.4230     0.1020     2.2770 c5         1 59H       0.082000
     16 CX9          5.6900     0.3890     3.1540 c5         1 59H       0.082000
     17 NX2          6.7520     0.5210     2.1550 ns         1 59H      -0.513900
     18 CXA          6.3170     0.3630     0.8800 c          1 59H       0.615000
     19 OX2          7.0440     0.4360    -0.0950 o          1 59H      -0.521000
     20 CA1         -1.7520    -2.2600    -0.8450 c3         1 59H      -0.015300
     21 C1          -2.5380    -2.6790    -2.1070 c          1 59H       0.582900
     22 O1          -2.1070    -2.5530    -3.2540 o          1 59H      -0.543100
     23 N3          -3.9130    -1.9330     0.4200 n7         1 59H      -0.878400
     24 CA3         -4.6810    -0.8660     1.1900 c5         1 59H       0.023500
     25 CXC         -4.3560     0.5430     0.5390 c5         1 59H       0.168000
     26 CXD         -2.6120    -1.3490     0.0670 c5         1 59H       0.346500
     27 S4          -3.1650     0.1580    -0.8300 ss         1 59H      -0.544000
     28 CXE         -3.6650     1.5890     1.4580 c3         1 59H      -0.071100
     29 H1          -0.3010    -1.3940    -2.1900 hn         1 59H       0.330500
     30 H2           2.5440    -0.3600     1.0330 hn         1 59H       0.340500
     31 H3           2.1740    -1.2350    -1.7270 h1         1 59H       0.083700
     32 H4           2.1930     0.2850    -3.5380 ha         1 59H       0.113000
     33 H5           1.4650     2.4130    -4.5900 ha         1 59H       0.110000
     34 H6           0.1910     4.0960    -3.2630 ha         1 59H       0.108000
     35 H7          -0.3530     3.6420    -0.8730 ha         1 59H       0.110000
     36 H8           0.3690     1.5190     0.1900 ha         1 59H       0.113000
     37 H9           3.6620     0.8810     2.4200 h1         1 59H       0.061700
     38 H10          3.9840    -0.8730     2.5290 h1         1 59H       0.061700
     39 H11          5.5680     1.3090     3.7410 h1         1 59H       0.048700
     40 H12          5.8880    -0.4360     3.8510 h1         1 59H       0.048700
     41 H13          7.7320     0.7120     2.3280 hn         1 59H       0.329500
     42 H14         -1.5560    -3.1850    -0.2900 h1         1 59H       0.096700
     43 H15         -3.5360    -3.1350    -1.9270 h4         1 59H       0.018200
     44 H16         -3.7620    -2.7400     1.0400 hn         1 59H       0.428000
     45 H18         -5.7530    -1.0800     1.0780 h1         1 59H       0.068700
     46 H20         -6.3580     1.4340     0.6750 hc         1 59H       0.037033
     47 H21         -5.3630     2.1170    -0.6230 hc         1 59H       0.037033
     48 H22         -6.0870     0.5130    -0.8120 hc         1 59H       0.037033
     49 H23         -2.0390    -1.0590     0.9610 h2         1 59H       0.101700
     50 H24         -2.7410     1.1930     1.8960 hc         1 59H       0.037033
     51 H25         -3.3950     2.4900     0.8960 hc         1 59H       0.037033
     52 H26         -4.3220     1.9030     2.2780 hc         1 59H       0.037033
     53 O3          -3.4340    -1.3130     3.2320 o          1 59H      -0.717500
     54 CXB         -5.6130     1.1910    -0.0910 c3         1 59H      -0.071100
     55 OXT         -5.3700    -0.4450     3.4740 o          1 59H      -0.717500
     56 CX7          4.1410    -0.1000    -0.2180 c          1 59H       0.678100
@<TRIPOS>BOND
     1     1     5 1   
     2     1    20 1   
     3     1    29 1   
     4     2    24 1   
     5     2    53 1   
     6     2    55 1   
     7     3     4 1   
     8     3    30 1   
     9     3    56 1   
    10     4     5 1   
    11     4     7 1   
    12     4    31 1   
    13     5     6 2   
    14     7     8 ar  
    15     7    12 ar  
    16     8     9 ar  
    17     8    32 1   
    18     9    10 ar  
    19     9    33 1   
    20    10    11 ar  
    21    10    34 1   
    22    11    12 ar  
    23    11    35 1   
    24    12    36 1   
    25    13    56 2   
    26    14    15 1   
    27    14    18 1   
    28    14    56 1   
    29    15    16 1   
    30    15    37 1   
    31    15    38 1   
    32    16    17 1   
    33    16    39 1   
    34    16    40 1   
    35    17    18 1   
    36    17    41 1   
    37    18    19 2   
    38    20    21 1   
    39    20    26 1   
    40    20    42 1   
    41    21    22 2   
    42    21    43 1   
    43    23    24 1   
    44    23    26 1   
    45    23    44 1   
    46    24    25 1   
    47    24    45 1   
    48    25    27 1   
    49    25    28 1   
    50    25    54 1   
    51    26    27 1   
    52    26    49 1   
    53    28    50 1   
    54    28    51 1   
    55    28    52 1   
    56    46    54 1   
    57    47    54 1   
    58    48    54 1   
@<TRIPOS>SUBSTRUCTURE
     1 59H         1 TEMP              0 ****  ****    0 ROOT
