@<TRIPOS>MOLECULE
59H
   56    58     1     0     0
SMALL
bcc


@<TRIPOS>ATOM
      1 N1          -0.5580    -0.2180     0.0680 ns         1 59H      -0.525900
      2 C3          -5.8400     1.1990     0.8200 c          1 59H       0.915600
      3 N            3.0300    -0.2230     0.1550 ns         1 59H      -0.583900
      4 CA           1.7740     0.3440    -0.2450 c3         1 59H       0.094000
      5 C            0.6790    -0.3580     0.5640 c          1 59H       0.669100
      6 O            0.9330    -0.9380     1.6060 o          1 59H      -0.631100
      7 CX1          1.6710     1.8360     0.0060 ca         1 59H      -0.101300
      8 CX2          1.1090     2.6680    -0.9540 ca         1 59H      -0.101500
      9 CX3          0.9730     4.0290    -0.7140 ca         1 59H      -0.126000
     10 CX4          1.4030     4.5690     0.4900 ca         1 59H      -0.119000
     11 CX5          1.9700     3.7410     1.4510 ca         1 59H      -0.126000
     12 CX6          2.1010     2.3800     1.2120 ca         1 59H      -0.101500
     13 OX1          4.1810     0.7890    -1.4970 o          1 59H      -0.576100
     14 NX1          5.2870    -0.5970    -0.0430 n          1 59H      -0.544400
     15 CX8          5.2700    -1.5800     1.0340 c5         1 59H       0.082000
     16 CX9          6.6880    -2.1460     0.9870 c5         1 59H       0.082000
     17 NX2          7.4050    -1.0690     0.3480 ns         1 59H      -0.580900
     18 CXA          6.6010    -0.2660    -0.3890 c          1 59H       0.824500
     19 OX2          6.9560     0.5890    -1.1710 o          1 59H      -0.596500
     20 CA1         -1.7040    -0.8460     0.6660 c3         1 59H      -0.015300
     21 C1          -1.8630    -2.2770     0.1990 c          1 59H       0.582900
     22 O1          -1.0320    -2.8660    -0.4410 o          1 59H      -0.543100
     23 N3          -4.0870    -0.6020     1.1430 n7         1 59H      -0.823200
     24 CA3         -5.3620    -0.2490     0.5420 c5         1 59H       0.023500
     25 CXC         -5.2090    -0.6000    -0.9550 c5         1 59H       0.120100
     26 CXD         -2.9730    -0.0250     0.4260 c5         1 59H       0.298600
     27 S4          -3.4820    -0.0670    -1.3300 ss         1 59H      -0.448200
     28 CXE         -6.1510     0.1330    -1.9000 c3         1 59H      -0.071100
     29 H1          -0.6560     0.1440    -0.8690 hn         1 59H       0.330500
     30 H2           3.0270    -0.7570     1.0110 hn         1 59H       0.340500
     31 H3           1.6050     0.1540    -1.3100 h1         1 59H       0.083700
     32 H4           0.7840     2.2570    -1.9030 ha         1 59H       0.131000
     33 H5           0.5380     4.6670    -1.4730 ha         1 59H       0.128000
     34 H6           1.3020     5.6300     0.6780 ha         1 59H       0.126000
     35 H7           2.3120     4.1550     2.3900 ha         1 59H       0.128000
     36 H8           2.5500     1.7470     1.9680 ha         1 59H       0.131000
     37 H9           5.0630    -1.1050     1.9960 h1         1 59H       0.061700
     38 H10          4.5260    -2.3560     0.8570 h1         1 59H       0.061700
     39 H11          7.0720    -2.3580     1.9830 h1         1 59H       0.048700
     40 H12          6.7290    -3.0650     0.3960 h1         1 59H       0.048700
     41 H13          8.3750    -1.1610     0.0920 hn         1 59H       0.329500
     42 H14         -1.5510    -0.8850     1.7520 h1         1 59H       0.096700
     43 H15         -2.7970    -2.7580     0.5280 h4         1 59H       0.018200
     44 H16         -4.0550    -0.2980     2.1090 hn         1 59H       0.372800
     45 H18         -6.1260    -0.9210     0.9510 h1         1 59H       0.068700
     46 H20         -6.3880    -2.4060    -1.0030 hc         1 59H       0.037033
     47 H21         -5.0770    -2.3880    -2.1820 hc         1 59H       0.037033
     48 H22         -4.7270    -2.6700    -0.4740 hc         1 59H       0.037033
     49 H23         -2.7650     1.0140     0.6940 h2         1 59H       0.101700
     50 H24         -6.0340     1.2130    -1.8530 hc         1 59H       0.037033
     51 H25         -5.9640    -0.1810    -2.9280 hc         1 59H       0.037033
     52 H26         -7.1860    -0.1080    -1.6600 hc         1 59H       0.037033
     53 O3          -4.9870     2.0260     1.1930 o          1 59H      -0.822800
     54 CXB         -5.3500    -2.1050    -1.1650 c3         1 59H      -0.071100
     55 OXT         -7.0600     1.4010     0.6670 o          1 59H      -0.822800
     56 CX7          4.1640     0.0540    -0.5280 c          1 59H       0.812100
@<TRIPOS>BOND
     1     1     5 1   
     2     1    20 1   
     3     1    29 1   
     4     2    24 1   
     5     2    53 1   
     6     2    55 1   
     7     3     4 1   
     8     3    30 1   
     9     3    56 1   
    10     4     5 1   
    11     4     7 1   
    12     4    31 1   
    13     5     6 2   
    14     7     8 ar  
    15     7    12 ar  
    16     8     9 ar  
    17     8    32 1   
    18     9    10 ar  
    19     9    33 1   
    20    10    11 ar  
    21    10    34 1   
    22    11    12 ar  
    23    11    35 1   
    24    12    36 1   
    25    13    56 2   
    26    14    15 1   
    27    14    18 1   
    28    14    56 1   
    29    15    16 1   
    30    15    37 1   
    31    15    38 1   
    32    16    17 1   
    33    16    39 1   
    34    16    40 1   
    35    17    18 1   
    36    17    41 1   
    37    18    19 2   
    38    20    21 1   
    39    20    26 1   
    40    20    42 1   
    41    21    22 2   
    42    21    43 1   
    43    23    24 1   
    44    23    26 1   
    45    23    44 1   
    46    24    25 1   
    47    24    45 1   
    48    25    27 1   
    49    25    28 1   
    50    25    54 1   
    51    26    27 1   
    52    26    49 1   
    53    28    50 1   
    54    28    51 1   
    55    28    52 1   
    56    46    54 1   
    57    47    54 1   
    58    48    54 1   
@<TRIPOS>SUBSTRUCTURE
     1 59H         1 TEMP              0 ****  ****    0 ROOT
