@<TRIPOS>MOLECULE
59J
   63    65     1     0     0
SMALL
No Charge or Current Charge


@<TRIPOS>ATOM
      1 C10        -41.8850    -9.8150   -38.8560 ca         1 59J      -0.134300
      2 C12        -42.1920    -5.0360   -41.7160 c6         1 59J       0.088000
      3 C13        -42.9700    -3.8550   -42.3430 c6         1 59J       0.088000
      4 C14        -42.4090   -10.5060   -39.9700 ca         1 59J      -0.051000
      5 C15        -40.6750   -10.2530   -38.2800 ca         1 59J      -0.051000
      6 C16        -44.3970    -6.1810   -41.3990 c          1 59J       0.487000
      7 C17        -44.8910    -5.4010   -42.7100 c          1 59J       0.487000
      8 C20        -41.7340   -11.6220   -40.4920 ca         1 59J      -0.167500
      9 C21        -40.0050   -11.3730   -38.8040 ca         1 59J      -0.167500
     10 C22        -40.5360   -12.0560   -39.9080 ca         1 59J       0.121100
     11 C23        -45.2450    -2.2380   -44.0380 c3         1 59J      -0.114100
     12 S01        -45.2010   -12.7270   -36.4760 ss         1 59J      -0.624000
     13 O01        -43.0040    -9.1480   -33.5900 o          1 59J      -0.723500
     14 O03        -40.0540   -12.8830   -34.6170 o          1 59J      -0.716000
     15 O04        -39.9470   -14.0580   -36.3950 o          1 59J      -0.716000
     16 O05        -41.2060    -6.6550   -39.7360 o          1 59J      -0.630100
     17 O06        -45.1870    -6.9100   -40.8040 o          1 59J      -0.467000
     18 O07        -45.8980    -5.7540   -43.3210 o          1 59J      -0.521000
     19 O          -39.8940   -13.1460   -40.4150 oh         1 59J      -0.562100
     20 N01        -42.7700   -12.3770   -35.0050 n2         1 59J      -0.547900
     21 N02        -43.3850    -9.8080   -36.2180 ns         1 59J      -0.426900
     22 N03        -43.1420    -7.7150   -39.2980 ns         1 59J      -0.467900
     23 N04        -43.0420    -6.0260   -40.9800 n          1 59J      -0.393400
     24 N05        -44.1230    -4.3000   -43.1430 n          1 59J      -0.413800
     25 C01        -44.1890   -11.9730   -35.1250 c6         1 59J       0.323500
     26 C02        -44.2760   -10.4180   -35.1890 c3         1 59J      -0.021300
     27 C03        -44.0180    -9.8090   -33.7840 c          1 59J       0.730000
     28 C07        -42.1030   -13.1110   -35.8690 ce         1 59J       0.345300
     29 C04        -42.7090   -13.7300   -37.1540 c6         1 59J      -0.142000
     30 C05        -43.8720   -12.9040   -37.7180 c6         1 59J       0.095600
     31 C06        -43.7930    -9.1080   -37.3330 c          1 59J       0.584100
     32 C08        -43.1070   -15.2130   -36.9020 c3         1 59J      -0.067100
     33 CA         -42.6330    -8.6240   -38.2520 c3         1 59J       0.079000
     34 C09        -40.5920   -13.3670   -35.6110 c          1 59J       0.624700
     35 O08        -44.8920    -9.9450   -32.9380 o          1 59J      -0.723500
     36 H3         -42.2850    -3.2610   -42.9640 h1         1 59J       0.052200
     37 H4         -43.3350    -3.2000   -41.5390 h1         1 59J       0.052200
     38 H5         -43.3460   -10.1900   -40.4240 ha         1 59J       0.127000
     39 H6         -40.2530    -9.7310   -37.4240 ha         1 59J       0.127000
     40 H7         -43.5600    -3.2790   -44.9000 h1         1 59J       0.056200
     41 H8         -45.0860    -4.1540   -45.0320 h1         1 59J       0.056200
     42 H9         -42.1460   -12.1540   -41.3460 ha         1 59J       0.124000
     43 H10        -39.0760   -11.7030   -38.3450 ha         1 59J       0.124000
     44 H11        -45.4910    -1.7020   -44.9620 hc         1 59J       0.040367
     45 H12        -46.1800    -2.4630   -43.5110 hc         1 59J       0.040367
     46 H13        -44.6410    -1.5760   -43.4070 hc         1 59J       0.040367
     47 H15        -39.1180   -13.3390   -39.8460 ho         1 59J       0.466000
     48 H16        -42.3860    -9.9140   -36.0860 hn         1 59J       0.345500
     49 H17        -44.1310    -7.7480   -39.5270 hn         1 59J       0.378500
     50 H18        -44.7030   -12.2760   -34.1980 h2         1 59J       0.108700
     51 H19        -45.3140   -10.1630   -35.4290 h1         1 59J       0.069700
     52 H20        -41.9370   -13.7580   -37.9330 hc         1 59J       0.062700
     53 H21        -44.2850   -13.3810   -38.6190 h1         1 59J       0.051200
     54 H22        -43.5220   -11.9020   -37.9940 h1         1 59J       0.051200
     55 H23        -42.2350   -15.8130   -36.6150 hc         1 59J       0.028367
     56 H24        -43.8460   -15.3050   -36.0980 hc         1 59J       0.028367
     57 H25        -43.5340   -15.6670   -37.8040 hc         1 59J       0.028367
     58 H26        -41.9470    -8.0540   -37.6110 h1         1 59J       0.087700
     59 O02        -44.9760    -8.8950   -37.5790 o          1 59J      -0.647100
     60 H1         -41.6550    -5.5670   -42.5150 h1         1 59J       0.075200
     61 C19        -44.4810    -3.5330   -44.3580 c3         1 59J       0.100000
     62 C11        -42.3940    -6.7960   -39.9850 c          1 59J       0.647100
     63 H2         -41.4320    -4.6110   -41.0460 h1         1 59J       0.075200
@<TRIPOS>BOND
     1     1     4 ar  
     2     1     5 ar  
     3     1    33 1   
     4     2     3 1   
     5     2    23 1   
     6     2    60 1   
     7     2    63 1   
     8     3    24 1   
     9     3    36 1   
    10     3    37 1   
    11     4     8 ar  
    12     4    38 1   
    13     5     9 ar  
    14     5    39 1   
    15     6     7 1   
    16     6    17 2   
    17     6    23 1   
    18     7    18 2   
    19     7    24 1   
    20     8    10 ar  
    21     8    42 1   
    22     9    10 ar  
    23     9    43 1   
    24    10    19 1   
    25    11    44 1   
    26    11    45 1   
    27    11    46 1   
    28    11    61 1   
    29    12    25 1   
    30    12    30 1   
    31    13    27 1   
    32    14    34 1   
    33    15    34 1   
    34    16    62 2   
    35    19    47 1   
    36    20    25 1   
    37    20    28 2   
    38    21    26 1   
    39    21    31 1   
    40    21    48 1   
    41    22    33 1   
    42    22    49 1   
    43    22    62 1   
    44    23    62 1   
    45    24    61 1   
    46    25    26 1   
    47    25    50 1   
    48    26    27 1   
    49    26    51 1   
    50    27    35 1   
    51    28    29 1   
    52    28    34 1   
    53    29    30 1   
    54    29    32 1   
    55    29    52 1   
    56    30    53 1   
    57    30    54 1   
    58    31    33 1   
    59    31    59 2   
    60    32    55 1   
    61    32    56 1   
    62    32    57 1   
    63    33    58 1   
    64    40    61 1   
    65    41    61 1   
@<TRIPOS>SUBSTRUCTURE
     1 59J         1 TEMP              0 ****  ****    0 ROOT
