@<TRIPOS>MOLECULE
59J
   63    65     1     0     0
SMALL
abcg2


@<TRIPOS>ATOM
      1 C10        -41.9240    -9.7660   -38.9250 ca         1 59J      -0.134300
      2 C12        -42.1480    -5.2690   -41.8180 c6         1 59J       0.088000
      3 C13        -42.8820    -4.0440   -42.2990 c6         1 59J       0.088000
      4 C14        -42.3540   -10.2880   -40.1420 ca         1 59J      -0.051000
      5 C15        -40.8620   -10.3840   -38.2700 ca         1 59J      -0.051000
      6 C16        -44.3600    -6.2070   -41.3490 c          1 59J       0.487000
      7 C17        -44.8360    -5.4460   -42.6180 c          1 59J       0.487000
      8 C20        -41.7440   -11.4050   -40.6940 ca         1 59J      -0.167500
      9 C21        -40.2460   -11.5050   -38.8070 ca         1 59J      -0.167500
     10 C22        -40.6910   -12.0220   -40.0220 ca         1 59J       0.121100
     11 C23        -45.1840    -2.3090   -43.6950 c3         1 59J      -0.114100
     12 S01        -45.0990   -12.6410   -36.7790 ss         1 59J      -0.624000
     13 O01        -43.0760    -9.0430   -33.7360 o          1 59J      -0.723500
     14 O03        -40.0900   -12.1070   -34.8540 o          1 59J      -0.716000
     15 O04        -40.0510   -14.1120   -35.8590 o          1 59J      -0.716000
     16 O05        -41.1780    -6.8270   -39.8700 o          1 59J      -0.630100
     17 O06        -45.1930    -6.8660   -40.7490 o          1 59J      -0.467000
     18 O07        -45.8890    -5.8050   -43.1330 o          1 59J      -0.521000
     19 O          -40.1340   -13.1290   -40.5930 oh         1 59J      -0.562100
     20 N01        -42.8320   -12.1730   -35.1470 n2         1 59J      -0.547900
     21 N02        -43.4730    -9.6990   -36.2950 ns         1 59J      -0.426900
     22 N03        -43.1880    -7.6530   -39.2250 ns         1 59J      -0.467900
     23 N04        -43.0400    -6.1100   -41.0020 n          1 59J      -0.393400
     24 N05        -44.0710    -4.4340   -43.0500 n          1 59J      -0.413800
     25 C01        -44.2180   -11.8600   -35.3460 c6         1 59J       0.323500
     26 C02        -44.3570   -10.3170   -35.3320 c3         1 59J      -0.021300
     27 C03        -44.0700    -9.7880   -33.8940 c          1 59J       0.730000
     28 C07        -42.1080   -12.9180   -35.8760 ce         1 59J       0.345300
     29 C04        -42.5570   -13.6980   -37.0940 c6         1 59J      -0.142000
     30 C05        -43.6620   -12.9630   -37.8440 c6         1 59J       0.095600
     31 C06        -43.8340    -9.1360   -37.4510 c          1 59J       0.584100
     32 C08        -42.9510   -15.1360   -36.7270 c3         1 59J      -0.067100
     33 CA         -42.6460    -8.5950   -38.2740 c3         1 59J       0.079000
     34 C09        -40.6130   -13.0520   -35.4860 c          1 59J       0.624700
     35 O08        -44.8790   -10.1780   -33.0200 o          1 59J      -0.723500
     36 H3         -42.2300    -3.4810   -42.9650 h1         1 59J       0.052200
     37 H4         -43.1500    -3.3960   -41.4600 h1         1 59J       0.052200
     38 H5         -43.1780    -9.8220   -40.6680 ha         1 59J       0.127000
     39 H6         -40.5100    -9.9940   -37.3220 ha         1 59J       0.127000
     40 H7         -43.6260    -3.3670   -44.7640 h1         1 59J       0.056200
     41 H8         -45.1900    -4.1860   -44.7720 h1         1 59J       0.056200
     42 H9         -42.0820   -11.8130   -41.6380 ha         1 59J       0.124000
     43 H10        -39.4280   -11.9850   -38.2830 ha         1 59J       0.124000
     44 H11        -45.4830    -1.7140   -44.5590 hc         1 59J       0.040367
     45 H12        -46.0750    -2.5360   -43.1070 hc         1 59J       0.040367
     46 H13        -44.5080    -1.7080   -43.0860 hc         1 59J       0.040367
     47 H15        -39.4230   -13.4690   -40.0310 ho         1 59J       0.466000
     48 H16        -42.5260    -9.5690   -35.9720 hn         1 59J       0.345500
     49 H17        -44.1840    -7.6820   -39.4140 hn         1 59J       0.378500
     50 H18        -44.7710   -12.2180   -34.4770 h2         1 59J       0.108700
     51 H19        -45.3820   -10.0620   -35.5890 h1         1 59J       0.069700
     52 H20        -41.6930   -13.7520   -37.7580 hc         1 59J       0.062700
     53 H21        -44.0330   -13.5680   -38.6720 h1         1 59J       0.051200
     54 H22        -43.2920   -12.0250   -38.2490 h1         1 59J       0.051200
     55 H23        -42.1400   -15.6260   -36.1930 hc         1 59J       0.028367
     56 H24        -43.8420   -15.1450   -36.0990 hc         1 59J       0.028367
     57 H25        -43.1660   -15.7040   -37.6350 hc         1 59J       0.028367
     58 H26        -41.9530    -8.0860   -37.6020 h1         1 59J       0.087700
     59 O02        -44.9830    -9.0730   -37.8860 o          1 59J      -0.647100
     60 H1         -41.7680    -5.8490   -42.6620 h1         1 59J       0.075200
     61 C19        -44.5090    -3.5930   -44.1650 c3         1 59J       0.100000
     62 C11        -42.3950    -6.8920   -39.9860 c          1 59J       0.647100
     63 H2         -41.3090    -4.9780   -41.1960 h1         1 59J       0.075200
@<TRIPOS>BOND
     1     1     4 ar  
     2     1     5 ar  
     3     1    33 1   
     4     2     3 1   
     5     2    23 1   
     6     2    60 1   
     7     2    63 1   
     8     3    24 1   
     9     3    36 1   
    10     3    37 1   
    11     4     8 ar  
    12     4    38 1   
    13     5     9 ar  
    14     5    39 1   
    15     6     7 1   
    16     6    17 2   
    17     6    23 1   
    18     7    18 2   
    19     7    24 1   
    20     8    10 ar  
    21     8    42 1   
    22     9    10 ar  
    23     9    43 1   
    24    10    19 1   
    25    11    44 1   
    26    11    45 1   
    27    11    46 1   
    28    11    61 1   
    29    12    25 1   
    30    12    30 1   
    31    13    27 1   
    32    14    34 1   
    33    15    34 1   
    34    16    62 2   
    35    19    47 1   
    36    20    25 1   
    37    20    28 2   
    38    21    26 1   
    39    21    31 1   
    40    21    48 1   
    41    22    33 1   
    42    22    49 1   
    43    22    62 1   
    44    23    62 1   
    45    24    61 1   
    46    25    26 1   
    47    25    50 1   
    48    26    27 1   
    49    26    51 1   
    50    27    35 1   
    51    28    29 1   
    52    28    34 1   
    53    29    30 1   
    54    29    32 1   
    55    29    52 1   
    56    30    53 1   
    57    30    54 1   
    58    31    33 1   
    59    31    59 2   
    60    32    55 1   
    61    32    56 1   
    62    32    57 1   
    63    33    58 1   
    64    40    61 1   
    65    41    61 1   
@<TRIPOS>SUBSTRUCTURE
     1 59J         1 TEMP              0 ****  ****    0 ROOT
