@<TRIPOS>MOLECULE
59K
   41    44     1     0     0
SMALL
bcc


@<TRIPOS>ATOM
      1 C4          -2.5110     2.1650     0.6750 ca         1 59K       0.484600
      2 C5          -1.7650     1.4360    -0.2540 ca         1 59K      -0.350400
      3 C6          -0.4020     1.8270    -0.3650 ca         1 59K       0.752200
      4 N1           0.0160     2.8930     0.3140 nb         1 59K      -0.808000
      5 N3          -2.0700     3.1920     1.3960 nb         1 59K      -0.699000
      6 FAB         -5.5980    -1.1980     1.1120 f          1 59K      -0.234300
      7 CAZ         -5.2080    -1.5890    -0.1100 c3         1 59K       0.664900
      8 FAC         -4.1150    -2.3430     0.0560 f          1 59K      -0.234300
      9 FAD         -6.1690    -2.3860    -0.5920 f          1 59K      -0.234300
     10 CAS         -3.8570     0.4630    -0.5190 cc         1 59K      -0.108600
     11 SAQ         -4.1510     1.6220     0.7430 ss         1 59K      -0.064900
     12 CAF         -2.5740     0.4800    -0.9470 cd         1 59K      -0.066200
     13 C2          -0.8200     3.5140     1.1350 ca         1 59K       0.698900
     14 NAY          0.4920     1.1960    -1.1680 nh         1 59K      -0.766300
     15 CAJ          1.7990     1.7790    -1.4070 c6         1 59K       0.205800
     16 CAH          2.8480     1.2210    -0.4630 c6         1 59K       0.179300
     17 CAI          0.5300    -0.2480    -1.3250 c6         1 59K       0.205800
     18 CAG          1.5540    -0.8700    -0.3870 c6         1 59K       0.179300
     19 NAX          2.8540    -0.2320    -0.5300 nh         1 59K      -0.750300
     20 CAT          3.9360    -0.9210    -0.1050 cc         1 59K       0.673300
     21 SAP          5.5090    -0.1890     0.0540 ss         1 59K      -0.348800
     22 NAO          3.9330    -2.1870     0.1950 nd         1 59K      -0.416000
     23 NAN          5.1570    -2.6510     0.5330 nd         1 59K      -0.295000
     24 CAR          6.0870    -1.7650     0.5190 cc         1 59K       0.408700
     25 CAA          7.5120    -2.0120     0.8550 c3         1 59K      -0.126400
     26 H1          -4.6790    -0.7970    -2.0070 hc         1 59K       0.089700
     27 H2          -5.8880     0.1390    -1.1430 hc         1 59K       0.089700
     28 H3          -2.2420    -0.1430    -1.7640 ha         1 59K       0.156000
     29 H4          -0.4180     4.3730     1.6610 h5         1 59K       0.051100
     30 H5           2.0780     1.5430    -2.4370 h1         1 59K       0.073950
     31 H6           1.7560     2.8590    -1.3090 h1         1 59K       0.073950
     32 H7           3.8190     1.6100    -0.7740 h1         1 59K       0.066950
     33 H8           2.6600     1.5660     0.5610 h1         1 59K       0.066950
     34 H9          -0.4300    -0.7010    -1.1030 h1         1 59K       0.073950
     35 H10          0.7750    -0.4840    -2.3630 h1         1 59K       0.073950
     36 H11          1.2030    -0.7920     0.6500 h1         1 59K       0.066950
     37 H12          1.6480    -1.9270    -0.6250 h1         1 59K       0.066950
     38 H13          7.8360    -1.3890     1.6890 hc         1 59K       0.060367
     39 H14          7.6430    -3.0560     1.1320 hc         1 59K       0.060367
     40 H15          8.1620    -1.7940     0.0080 hc         1 59K       0.060367
     41 CAK         -4.9530    -0.4130    -1.0230 c3         1 59K      -0.079200
@<TRIPOS>BOND
     1     1     2 ar  
     2     1     5 ar  
     3     1    11 1   
     4     2     3 ar  
     5     2    12 1   
     6     3     4 ar  
     7     3    14 1   
     8     4    13 ar  
     9     5    13 ar  
    10     6     7 1   
    11     7     8 1   
    12     7     9 1   
    13     7    41 1   
    14    10    11 1   
    15    10    12 2   
    16    10    41 1   
    17    12    28 1   
    18    13    29 1   
    19    14    15 1   
    20    14    17 1   
    21    15    16 1   
    22    15    30 1   
    23    15    31 1   
    24    16    19 1   
    25    16    32 1   
    26    16    33 1   
    27    17    18 1   
    28    17    34 1   
    29    17    35 1   
    30    18    19 1   
    31    18    36 1   
    32    18    37 1   
    33    19    20 1   
    34    20    21 1   
    35    20    22 2   
    36    21    24 1   
    37    22    23 1   
    38    23    24 2   
    39    24    25 1   
    40    25    38 1   
    41    25    39 1   
    42    25    40 1   
    43    26    41 1   
    44    27    41 1   
@<TRIPOS>SUBSTRUCTURE
     1 59K         1 TEMP              0 ****  ****    0 ROOT
