@<TRIPOS>MOLECULE
59K
   41    44     1     0     0
SMALL
No Charge or Current Charge


@<TRIPOS>ATOM
      1 C4          -2.6770     2.2810     0.6330 ca         1 59K       0.156300
      2 C5          -1.8880     1.5010    -0.1820 ca         1 59K      -0.219800
      3 C6          -0.4970     1.7090    -0.1810 ca         1 59K       0.423900
      4 N1           0.0350     2.6760     0.5980 nb         1 59K      -0.282000
      5 N3          -2.1700     3.2440     1.4240 nb         1 59K      -0.173000
      6 FAB         -5.9300    -1.1780     0.6840 f          1 59K      -0.113000
      7 CAZ         -5.4940    -1.4620    -0.5640 c3         1 59K       0.301000
      8 FAC         -4.4170    -2.2750    -0.4580 f          1 59K      -0.113000
      9 FAD         -6.4700    -2.1480    -1.2000 f          1 59K      -0.113000
     10 CAS         -4.0460     0.6430    -0.7000 cc         1 59K      -0.108600
     11 SAQ         -4.4170     1.8980     0.5200 ss         1 59K      -0.064900
     12 CAF         -2.6900     0.5740    -0.9500 cd         1 59K      -0.116200
     13 C2          -0.8260     3.3930     1.3600 ca         1 59K       0.172900
     14 NAY          0.3830     0.9360    -0.9680 nh         1 59K      -0.766300
     15 CAJ          1.6820     1.4970    -1.4580 c6         1 59K       0.205800
     16 CAH          2.8840     1.1350    -0.5290 c6         1 59K       0.179300
     17 CAI          0.4680    -0.5390    -0.7370 c6         1 59K       0.205800
     18 CAG          1.6490    -0.9230     0.2090 c6         1 59K       0.179300
     19 NAX          2.9620    -0.3320    -0.2190 nh         1 59K      -0.750300
     20 CAT          4.1620    -0.9700     0.0440 cc         1 59K       0.673300
     21 SAP          5.6930    -0.1800    -0.1820 ss         1 59K      -0.348800
     22 NAO          4.2390    -2.2190     0.4800 nd         1 59K      -0.416000
     23 NAN          5.5470    -2.6280     0.6650 nd         1 59K      -0.295000
     24 CAR          6.4040    -1.6670     0.3580 cc         1 59K       0.408700
     25 CAA          7.8930    -1.8130     0.4590 c3         1 59K      -0.126400
     26 H1          -4.8500    -0.4480    -2.3600 hc         1 59K       0.089700
     27 H2          -6.0470     0.4360    -1.4340 hc         1 59K       0.089700
     28 H3          -2.2690    -0.1100    -1.6830 ha         1 59K       0.206000
     29 H4          -0.3920     4.1680     1.9880 h5         1 59K       0.051100
     30 H5           1.8910     1.1040    -2.4640 h1         1 59K       0.073950
     31 H6           1.6230     2.5900    -1.5670 h1         1 59K       0.073950
     32 H7           3.7970     1.4940    -1.0220 h1         1 59K       0.066950
     33 H8           2.7850     1.7030     0.4080 h1         1 59K       0.066950
     34 H9          -0.4650    -0.9260    -0.3020 h1         1 59K       0.073950
     35 H10          0.6020    -1.0570    -1.6980 h1         1 59K       0.073950
     36 H11          1.4060    -0.5760     1.2240 h1         1 59K       0.066950
     37 H12          1.6990    -2.0200     0.2530 h1         1 59K       0.066950
     38 H13          8.2900    -1.1640     1.2480 hc         1 59K       0.060367
     39 H14          8.1760    -2.8460     0.6930 hc         1 59K       0.060367
     40 H15          8.3730    -1.5350    -0.4850 hc         1 59K       0.060367
     41 CAK         -5.1410    -0.1740    -1.3390 c3         1 59K      -0.079200
@<TRIPOS>BOND
     1     1     2 ar  
     2     1     5 ar  
     3     1    11 1   
     4     2     3 ar  
     5     2    12 1   
     6     3     4 ar  
     7     3    14 1   
     8     4    13 ar  
     9     5    13 ar  
    10     6     7 1   
    11     7     8 1   
    12     7     9 1   
    13     7    41 1   
    14    10    11 1   
    15    10    12 2   
    16    10    41 1   
    17    12    28 1   
    18    13    29 1   
    19    14    15 1   
    20    14    17 1   
    21    15    16 1   
    22    15    30 1   
    23    15    31 1   
    24    16    19 1   
    25    16    32 1   
    26    16    33 1   
    27    17    18 1   
    28    17    34 1   
    29    17    35 1   
    30    18    19 1   
    31    18    36 1   
    32    18    37 1   
    33    19    20 1   
    34    20    21 1   
    35    20    22 2   
    36    21    24 1   
    37    22    23 1   
    38    23    24 2   
    39    24    25 1   
    40    25    38 1   
    41    25    39 1   
    42    25    40 1   
    43    26    41 1   
    44    27    41 1   
@<TRIPOS>SUBSTRUCTURE
     1 59K         1 TEMP              0 ****  ****    0 ROOT
