@<TRIPOS>MOLECULE
59L
   33    34     1     0     0
SMALL
bcc


@<TRIPOS>ATOM
      1 C01          3.7900     0.7430    -0.6630 ca         1 59L      -0.082000
      2 C02          3.6850     0.6090    -2.0370 ca         1 59L      -0.207000
      3 C03          2.4230     0.5800    -2.6120 ca         1 59L      -0.113000
      4 C04          1.2660     0.6600    -1.8490 ca         1 59L      -0.128300
      5 C05          1.3850     0.7460    -0.4470 ca         1 59L       0.220600
      6 C06          2.6630     0.8200     0.1490 ca         1 59L      -0.170600
      7 C07          2.8730     0.9870     1.6450 c          1 59L       0.942200
      8 N08          0.2690     0.8780     0.3610 nu         1 59L      -0.667000
      9 C09         -0.8950     0.1200     0.2930 ca         1 59L       0.199600
     10 C10         -0.9600    -1.1940    -0.2000 ca         1 59L      -0.115600
     11 C11         -2.0620     0.7310     0.7510 ca         1 59L      -0.138000
     12 C12         -3.2680     0.0520     0.7070 ca         1 59L      -0.194200
     13 C13         -3.3660    -1.2210     0.1610 ca         1 59L      -0.136000
     14 C14         -2.2040    -1.8130    -0.2960 ca         1 59L      -0.126000
     15 C15          0.2700    -2.0360    -0.5160 c          1 59L       0.925200
     16 O16          0.2640    -2.6440    -1.6010 o          1 59L      -0.802800
     17 O17          1.1200    -2.0810     0.3870 o          1 59L      -0.802800
     18 O18          1.8760     1.3030     2.3480 o          1 59L      -0.835300
     19 N19         -4.4610     0.7040     1.2120 no         1 59L       0.322200
     20 C20         -0.0610     0.7200    -2.5500 c3         1 59L      -0.031800
     21 O21         -5.5180     0.1240     1.1020 o          1 59L      -0.265000
     22 O22         -4.3490     1.7960     1.7220 o          1 59L      -0.265000
     23 O23          4.0230     0.8240     2.0830 o          1 59L      -0.835300
     24 H1           4.7660     0.7890    -0.2000 ha         1 59L       0.129000
     25 H2           4.5700     0.5510    -2.6560 ha         1 59L       0.089000
     26 H3           2.3290     0.5190    -3.6910 ha         1 59L       0.087000
     27 H4           0.5640     1.1650     1.3070 hn         1 59L       0.499800
     28 H5          -2.0080     1.7440     1.1270 ha         1 59L       0.153000
     29 H6          -4.3090    -1.7440     0.0980 ha         1 59L       0.129000
     30 H7          -2.2590    -2.8120    -0.7100 ha         1 59L       0.136000
     31 H9          -0.5440    -0.2570    -2.5980 hc         1 59L       0.027367
     32 H10         -0.7550     1.4030    -2.0600 hc         1 59L       0.027367
     33 H11          0.0730     1.0640    -3.5760 hc         1 59L       0.027367
@<TRIPOS>BOND
     1     1     2 ar  
     2     1     6 ar  
     3     1    24 1   
     4     2     3 ar  
     5     2    25 1   
     6     3     4 ar  
     7     3    26 1   
     8     4     5 ar  
     9     4    20 1   
    10     5     6 ar  
    11     5     8 1   
    12     6     7 1   
    13     7    18 1   
    14     7    23 1   
    15     8     9 1   
    16     8    27 1   
    17     9    10 ar  
    18     9    11 ar  
    19    10    14 ar  
    20    10    15 1   
    21    11    12 ar  
    22    11    28 1   
    23    12    13 ar  
    24    12    19 1   
    25    13    14 ar  
    26    13    29 1   
    27    14    30 1   
    28    15    16 1   
    29    15    17 1   
    30    19    21 1   
    31    19    22 1   
    32    20    31 1   
    33    20    32 1   
    34    20    33 1   
@<TRIPOS>SUBSTRUCTURE
     1 59L         1 TEMP              0 ****  ****    0 ROOT
