@<TRIPOS>MOLECULE
59L
   33    34     1     0     0
SMALL
No Charge or Current Charge


@<TRIPOS>ATOM
      1 C01          3.8640     0.8390    -0.6950 ca         1 59L      -0.064000
      2 C02          3.7370     0.8000    -2.0900 ca         1 59L      -0.189000
      3 C03          2.4690     0.7650    -2.6800 ca         1 59L      -0.095000
      4 C04          1.3100     0.7520    -1.8810 ca         1 59L      -0.128300
      5 C05          1.4350     0.7540    -0.4630 ca         1 59L       0.359000
      6 C06          2.7190     0.8270     0.1320 ca         1 59L      -0.170600
      7 C07          2.8990     0.8790     1.6330 c          1 59L       0.731600
      8 N08          0.3070     0.7240     0.3610 nu         1 59L      -0.999000
      9 C09         -0.8940     0.0100     0.3270 ca         1 59L       0.338000
     10 C10         -0.9830    -1.3430    -0.0710 ca         1 59L      -0.115600
     11 C11         -2.0590     0.6930     0.7200 ca         1 59L      -0.120000
     12 C12         -3.3280     0.0660     0.6910 ca         1 59L      -0.194200
     13 C13         -3.4080    -1.2770     0.2640 ca         1 59L      -0.118000
     14 C14         -2.2460    -1.9720    -0.1090 ca         1 59L      -0.108000
     15 C15          0.2350    -2.1480    -0.4190 c          1 59L       0.714600
     16 O16          0.2660    -2.6910    -1.5160 o          1 59L      -0.697500
     17 O17          1.0440    -2.3860     0.4680 o          1 59L      -0.697500
     18 O18          2.0540     1.4490     2.3140 o          1 59L      -0.730000
     19 N19         -4.5640     0.8170     1.1010 no         1 59L       0.702200
     20 C20         -0.0460     0.7860    -2.5900 c3         1 59L      -0.031800
     21 O21         -5.6530     0.2290     1.0520 o          1 59L      -0.455000
     22 O22         -4.4410     1.9930     1.4710 o          1 59L      -0.455000
     23 O23          3.9190     0.4030     2.1110 o          1 59L      -0.730000
     24 H1           4.8580     0.8850    -0.2560 ha         1 59L       0.111000
     25 H2           4.6260     0.8130    -2.7150 ha         1 59L       0.071000
     26 H3           2.3870     0.7580    -3.7640 ha         1 59L       0.069000
     27 H4           0.5420     1.0860     1.2970 hn         1 59L       0.555000
     28 H5          -1.9700     1.7310     1.0310 ha         1 59L       0.135000
     29 H6          -4.3650    -1.7950     0.2260 ha         1 59L       0.111000
     30 H7          -2.3220    -3.0130    -0.4170 ha         1 59L       0.118000
     31 H9          -0.5150    -0.2030    -2.6080 hc         1 59L       0.027367
     32 H10         -0.7390     1.4830    -2.1030 hc         1 59L       0.027367
     33 H11          0.0520     1.1170    -3.6310 hc         1 59L       0.027367
@<TRIPOS>BOND
     1     1     2 ar  
     2     1     6 ar  
     3     1    24 1   
     4     2     3 ar  
     5     2    25 1   
     6     3     4 ar  
     7     3    26 1   
     8     4     5 ar  
     9     4    20 1   
    10     5     6 ar  
    11     5     8 1   
    12     6     7 1   
    13     7    18 1   
    14     7    23 1   
    15     8     9 1   
    16     8    27 1   
    17     9    10 ar  
    18     9    11 ar  
    19    10    14 ar  
    20    10    15 1   
    21    11    12 ar  
    22    11    28 1   
    23    12    13 ar  
    24    12    19 1   
    25    13    14 ar  
    26    13    29 1   
    27    14    30 1   
    28    15    16 1   
    29    15    17 1   
    30    19    21 1   
    31    19    22 1   
    32    20    31 1   
    33    20    32 1   
    34    20    33 1   
@<TRIPOS>SUBSTRUCTURE
     1 59L         1 TEMP              0 ****  ****    0 ROOT
