@<TRIPOS>MOLECULE
59M
   41    44     1     0     0
SMALL
bcc


@<TRIPOS>ATOM
      1 C4          -2.9410    -1.9430    -0.9550 ca         1 59M       0.482600
      2 C5          -2.1410    -1.4430     0.0750 ca         1 59M      -0.352400
      3 C6          -0.8670    -2.0630     0.1940 ca         1 59M       0.752200
      4 N1          -0.5830    -3.1020    -0.5890 nb         1 59M      -0.802000
      5 N3          -2.6280    -2.9440    -1.7730 nb         1 59M      -0.699000
      6 FAB         -5.7060     1.6970    -1.1380 f          1 59M      -0.234633
      7 CBA         -5.2310     2.0090     0.0770 c3         1 59M       0.664900
      8 FAC         -4.0800     2.6650    -0.1160 f          1 59M      -0.234633
      9 FAD         -6.0930     2.8740     0.6240 f          1 59M      -0.234633
     10 CAS         -4.0700    -0.1810     0.3680 cc         1 59M      -0.108600
     11 SAR         -4.4730    -1.1470    -1.0200 ss         1 59M      -0.059900
     12 CAF         -2.8290    -0.4450     0.8380 cd         1 59M      -0.070200
     13 C2          -1.4570    -3.4870    -1.5080 ca         1 59M       0.699900
     14 NAZ          0.0680    -1.6880     1.1040 nh         1 59M      -0.767300
     15 CAK          1.2480    -2.5040     1.3230 c6         1 59M       0.206300
     16 CAI          2.4290    -2.0210     0.5020 c6         1 59M       0.181800
     17 CAJ          0.3230    -0.3040     1.4570 c6         1 59M       0.206300
     18 CAH          1.4900     0.2560     0.6530 c6         1 59M       0.181800
     19 NAY          2.6580    -0.6020     0.7480 nh         1 59M      -0.753300
     20 CAU          3.8830    -0.1050     0.4970 cc         1 59M       0.676300
     21 SAQ          4.2100     1.6040     0.4410 ss         1 59M      -0.303800
     22 NAP          4.9460    -0.8370     0.2920 nd         1 59M      -0.417000
     23 NAO          6.0540    -0.1030     0.0990 nd         1 59M      -0.271000
     24 CAT          5.8650     1.1680     0.1470 cc         1 59M       0.336700
     25 CAG          6.9330     2.1810    -0.0420 c3         1 59M       0.141600
     26 FAA          6.6360     2.9680    -1.1490 f          1 59M      -0.237300
     27 H1          -4.7010     1.1070     1.9240 hc         1 59M       0.089700
     28 H2          -6.0300     0.3200     1.0840 hc         1 59M       0.089700
     29 H3          -2.4510     0.0370     1.7270 ha         1 59M       0.153000
     30 H4          -1.1650    -4.3350    -2.1170 h5         1 59M       0.053100
     31 H5           1.4940    -2.4440     2.3870 h1         1 59M       0.074450
     32 H6           1.0400    -3.5420     1.0850 h1         1 59M       0.074450
     33 H7           3.3180    -2.5790     0.7860 h1         1 59M       0.068450
     34 H8           2.2470    -2.1960    -0.5640 h1         1 59M       0.068450
     35 H9          -0.5350     0.3300     1.2630 h1         1 59M       0.074450
     36 H10          0.5420    -0.2450     2.5250 h1         1 59M       0.074450
     37 H11          1.1900     0.3860    -0.3940 h1         1 59M       0.068450
     38 H12          1.7170     1.2430     1.0580 h1         1 59M       0.068450
     39 H17          7.0180     2.8370     0.8240 h1         1 59M       0.069200
     40 H18          7.8820     1.6710    -0.2030 h1         1 59M       0.069200
     41 CAL         -5.0510     0.7850     0.9410 c3         1 59M      -0.080200
@<TRIPOS>BOND
     1     1     2 ar  
     2     1     5 ar  
     3     1    11 1   
     4     2     3 ar  
     5     2    12 1   
     6     3     4 ar  
     7     3    14 1   
     8     4    13 ar  
     9     5    13 ar  
    10     6     7 1   
    11     7     8 1   
    12     7     9 1   
    13     7    41 1   
    14    10    11 1   
    15    10    12 2   
    16    10    41 1   
    17    12    29 1   
    18    13    30 1   
    19    14    15 1   
    20    14    17 1   
    21    15    16 1   
    22    15    31 1   
    23    15    32 1   
    24    16    19 1   
    25    16    33 1   
    26    16    34 1   
    27    17    18 1   
    28    17    35 1   
    29    17    36 1   
    30    18    19 1   
    31    18    37 1   
    32    18    38 1   
    33    19    20 1   
    34    20    21 1   
    35    20    22 2   
    36    21    24 1   
    37    22    23 1   
    38    23    24 2   
    39    24    25 1   
    40    25    26 1   
    41    25    39 1   
    42    25    40 1   
    43    27    41 1   
    44    28    41 1   
@<TRIPOS>SUBSTRUCTURE
     1 59M         1 TEMP              0 ****  ****    0 ROOT
