@<TRIPOS>MOLECULE
59M
   41    44     1     0     0
SMALL
No Charge or Current Charge


@<TRIPOS>ATOM
      1 C4          -3.1170    -2.0440    -0.9890 ca         1 59M       0.154300
      2 C5          -2.2860    -1.5150    -0.0280 ca         1 59M      -0.221800
      3 C6          -0.9500    -1.9490     0.0300 ca         1 59M       0.423900
      4 N1          -0.5130    -2.8860    -0.8400 nb         1 59M      -0.276000
      5 N3          -2.7020    -2.9710    -1.8710 nb         1 59M      -0.173000
      6 FAB         -5.7770     1.8830    -0.7660 f          1 59M      -0.113333
      7 CBA         -5.4050     1.9330     0.5330 c3         1 59M       0.301000
      8 FAC         -4.2100     2.5640     0.6040 f          1 59M      -0.113333
      9 FAD         -6.3120     2.6860     1.1960 f          1 59M      -0.113333
     10 CAS         -4.3190    -0.3820     0.4690 cc         1 59M      -0.108600
     11 SAR         -4.7780    -1.3950    -0.9330 ss         1 59M      -0.059900
     12 CAF         -2.9950    -0.5720     0.8100 cd         1 59M      -0.120200
     13 C2          -1.4090    -3.3480    -1.7460 ca         1 59M       0.173900
     14 NAZ         -0.0280    -1.4380     0.9680 nh         1 59M      -0.767300
     15 CAK          1.1220    -2.2640     1.4570 c6         1 59M       0.206300
     16 CAI          2.4370    -1.9880     0.6630 c6         1 59M       0.181800
     17 CAJ          0.3020     0.0200     0.9520 c6         1 59M       0.206300
     18 CAH          1.6080     0.3270     0.1530 c6         1 59M       0.181800
     19 NAY          2.7700    -0.5260     0.5750 nh         1 59M      -0.753300
     20 CAU          4.0800    -0.0840     0.4950 cc         1 59M       0.676300
     21 SAQ          4.4790     1.5660     0.1200 ss         1 59M      -0.303800
     22 NAP          5.1240    -0.8750     0.7020 nd         1 59M      -0.417000
     23 NAO          6.3250    -0.2030     0.5680 nd         1 59M      -0.271000
     24 CAT          6.1410     1.0740     0.2630 cc         1 59M       0.336700
     25 CAG          7.2650     2.0570     0.0550 c3         1 59M       0.160300
     26 FAA          7.5210     2.2760    -1.2620 f          1 59M      -0.256000
     27 H1          -5.0760     0.6110     2.2100 hc         1 59M       0.089700
     28 H2          -6.3170     0.0590     1.1010 hc         1 59M       0.089700
     29 H3          -2.5350    -0.0650     1.6540 ha         1 59M       0.203000
     30 H4          -1.0510    -4.1000    -2.4470 h5         1 59M       0.053100
     31 H5           1.3050    -2.0420     2.5190 h1         1 59M       0.074450
     32 H6           0.8860    -3.3370     1.4070 h1         1 59M       0.074450
     33 H7           3.2450    -2.5550     1.1470 h1         1 59M       0.068450
     34 H8           2.3260    -2.3990    -0.3510 h1         1 59M       0.068450
     35 H9          -0.5180     0.6070     0.5140 h1         1 59M       0.074450
     36 H10          0.4260     0.3820     1.9840 h1         1 59M       0.074450
     37 H11          1.4070     0.1660    -0.9160 h1         1 59M       0.068450
     38 H12          1.8240     1.3970     0.2780 h1         1 59M       0.068450
     39 H17          7.0040     3.0130     0.5230 h1         1 59M       0.069200
     40 H18          8.1790     1.6780     0.5290 h1         1 59M       0.069200
     41 CAL         -5.3220     0.5180     1.1450 c3         1 59M      -0.080200
@<TRIPOS>BOND
     1     1     2 ar  
     2     1     5 ar  
     3     1    11 1   
     4     2     3 ar  
     5     2    12 1   
     6     3     4 ar  
     7     3    14 1   
     8     4    13 ar  
     9     5    13 ar  
    10     6     7 1   
    11     7     8 1   
    12     7     9 1   
    13     7    41 1   
    14    10    11 1   
    15    10    12 2   
    16    10    41 1   
    17    12    29 1   
    18    13    30 1   
    19    14    15 1   
    20    14    17 1   
    21    15    16 1   
    22    15    31 1   
    23    15    32 1   
    24    16    19 1   
    25    16    33 1   
    26    16    34 1   
    27    17    18 1   
    28    17    35 1   
    29    17    36 1   
    30    18    19 1   
    31    18    37 1   
    32    18    38 1   
    33    19    20 1   
    34    20    21 1   
    35    20    22 2   
    36    21    24 1   
    37    22    23 1   
    38    23    24 2   
    39    24    25 1   
    40    25    26 1   
    41    25    39 1   
    42    25    40 1   
    43    27    41 1   
    44    28    41 1   
@<TRIPOS>SUBSTRUCTURE
     1 59M         1 TEMP              0 ****  ****    0 ROOT
