@<TRIPOS>MOLECULE
59N
   66    70     1     0     0
SMALL
No Charge or Current Charge


@<TRIPOS>ATOM
      1 N3           5.4830     2.8560     0.0290 nu         1 59N      -0.912100
      2 C4           4.1220     2.6390     0.1450 ca         1 59N       0.429900
      3 C6           2.3510     1.2870    -0.3810 ca         1 59N       0.321900
      4 C8           0.4230    -0.1750    -0.9980 c          1 59N       0.577200
      5 C10         -0.4340     0.7670    -0.2320 cc         1 59N      -0.171400
      6 C13          2.0810     3.2810     0.9350 ca         1 59N       0.206900
      7 C15         -1.8750     0.5750    -0.0880 ca         1 59N      -0.007800
      8 C17         -3.7890    -0.6200     0.8480 ca         1 59N      -0.091000
      9 C20         -2.7610     1.4240    -0.7730 ca         1 59N      -0.101000
     10 C21         -6.1990     0.0470     0.2930 cp         1 59N       0.367500
     11 C24         -8.9050    -0.2630     0.5150 ca         1 59N       0.282900
     12 C26         -6.8100    -0.7190     1.3460 ca         1 59N       0.290900
     13 C1           7.7470     3.8130     0.2270 c3         1 59N      -0.116100
     14 C2           6.2640     3.9640     0.5990 c3         1 59N       0.239800
     15 N5           3.6730     1.5390    -0.4730 nb         1 59N      -0.320000
     16 N7           1.8100     0.1140    -1.0170 n          1 59N      -0.363300
     17 O9          -0.0430    -1.1500    -1.5750 o          1 59N      -0.521000
     18 C11          0.0790     1.8760     0.3990 cd         1 59N      -0.027200
     19 C12          1.5060     2.1550     0.3230 ca         1 59N      -0.312800
     20 N14          3.3990     3.5270     0.8480 nb         1 59N      -0.262000
     21 C16         -2.3990    -0.4500     0.7250 ca         1 59N       0.140000
     22 C18         -4.7050     0.2270     0.1640 cp         1 59N      -0.135500
     23 C19         -4.1510     1.2530    -0.6520 ca         1 59N      -0.070000
     24 N22         -6.9750     0.6630    -0.6440 nb         1 59N      -0.652000
     25 C23         -8.3200     0.5040    -0.5320 ca         1 59N       0.317300
     26 N25         -8.1580    -0.8830     1.4690 nb         1 59N      -0.628000
     27 C27         -9.1630     1.1950    -1.5880 c3         1 59N      -0.141400
     28 Cl1         -1.3280    -1.5280     1.6240 cl         1 59N      -0.193000
     29 C29          2.7050    -0.8170    -1.7670 c3         1 59N       0.097000
     30 C30          3.2070    -2.0480    -0.9510 c6         1 59N      -0.080700
     31 C32          4.0370    -3.0050    -1.8510 c6         1 59N      -0.066900
     32 C33          4.5180    -4.2520    -1.0680 c6         1 59N      -0.089900
     33 C34          5.3310    -3.8450     0.1860 c6         1 59N       0.152500
     34 C36          4.5020    -2.9030     1.0950 c6         1 59N      -0.089900
     35 C37          4.0210    -1.6540     0.3150 c6         1 59N      -0.066900
     36 N38          5.7540    -5.0420     0.9370 n8         1 59N      -0.986200
     37 H1           5.9840     2.1540    -0.5150 hn         1 59N       0.510000
     38 H2           1.4820     3.9950     1.4990 h4         1 59N       0.024100
     39 H3          -4.1460    -1.4300     1.4760 ha         1 59N       0.130000
     40 H4          -2.3710     2.2180    -1.4050 ha         1 59N       0.120000
     41 H5          -9.9860    -0.3790     0.5890 h4         1 59N       0.030100
     42 H6          -6.2080    -1.2000     2.1140 h4         1 59N       0.033100
     43 H7           8.1540     2.8730     0.6180 hc         1 59N       0.046367
     44 H8           7.8790     3.8290    -0.8610 hc         1 59N       0.046367
     45 H9           8.3280     4.6400     0.6530 hc         1 59N       0.046367
     46 H10          5.8920     4.9260     0.2190 h1         1 59N       0.055700
     47 H11          6.1660     3.9730     1.6940 h1         1 59N       0.055700
     48 H12         -0.5810     2.5400     0.9550 ha         1 59N       0.191000
     49 H13         -4.8030     1.9330    -1.1970 ha         1 59N       0.137000
     50 H14         -9.0060     2.2800    -1.5670 hc         1 59N       0.055033
     51 H15         -8.9060     0.8360    -2.5910 hc         1 59N       0.055033
     52 H16        -10.2330     1.0100    -1.4320 hc         1 59N       0.055033
     53 H17          2.1720    -1.1860    -2.6540 h1         1 59N       0.073700
     54 H18          3.5760    -0.2750    -2.1570 h1         1 59N       0.073700
     55 H19          2.3030    -2.5830    -0.6260 hc         1 59N       0.068700
     56 H20          3.4360    -3.3260    -2.7130 hc         1 59N       0.041950
     57 H21          4.9070    -2.4710    -2.2600 hc         1 59N       0.041950
     58 H22          3.6490    -4.8580    -0.7750 hc         1 59N       0.042700
     59 H23          5.1330    -4.8830    -1.7250 hc         1 59N       0.042700
     60 H24          6.2410    -3.3150    -0.1370 h1         1 59N       0.056700
     61 H25          3.6310    -3.4370     1.5000 hc         1 59N       0.042700
     62 H26          5.1040    -2.5850     1.9580 hc         1 59N       0.042700
     63 H27          4.8900    -1.0460     0.0270 hc         1 59N       0.041950
     64 H28          3.4090    -1.0320     0.9820 hc         1 59N       0.041950
     65 H29          6.2290    -4.7410     1.7950 hn         1 59N       0.389000
     66 H31          4.9160    -5.5230     1.2820 hn         1 59N       0.389000
@<TRIPOS>BOND
     1     1     2 1   
     2     1    14 1   
     3     1    37 1   
     4     2    15 ar  
     5     2    20 ar  
     6     3    15 ar  
     7     3    16 1   
     8     3    19 ar  
     9     4     5 1   
    10     4    16 1   
    11     4    17 2   
    12     5     7 1   
    13     5    18 2   
    14     6    19 ar  
    15     6    20 ar  
    16     6    38 1   
    17     7     9 ar  
    18     7    21 ar  
    19     8    21 ar  
    20     8    22 ar  
    21     8    39 1   
    22     9    23 ar  
    23     9    40 1   
    24    10    12 ar  
    25    10    22 1   
    26    10    24 ar  
    27    11    25 ar  
    28    11    26 ar  
    29    11    41 1   
    30    12    26 ar  
    31    12    42 1   
    32    13    14 1   
    33    13    43 1   
    34    13    44 1   
    35    13    45 1   
    36    14    46 1   
    37    14    47 1   
    38    16    29 1   
    39    18    19 1   
    40    18    48 1   
    41    21    28 1   
    42    22    23 ar  
    43    23    49 1   
    44    24    25 ar  
    45    25    27 1   
    46    27    50 1   
    47    27    51 1   
    48    27    52 1   
    49    29    30 1   
    50    29    53 1   
    51    29    54 1   
    52    30    31 1   
    53    30    35 1   
    54    30    55 1   
    55    31    32 1   
    56    31    56 1   
    57    31    57 1   
    58    32    33 1   
    59    32    58 1   
    60    32    59 1   
    61    33    34 1   
    62    33    36 1   
    63    33    60 1   
    64    34    35 1   
    65    34    61 1   
    66    34    62 1   
    67    35    63 1   
    68    35    64 1   
    69    36    65 1   
    70    36    66 1   
@<TRIPOS>SUBSTRUCTURE
     1 59N         1 TEMP              0 ****  ****    0 ROOT
