@<TRIPOS>MOLECULE
59N
   66    70     1     0     0
SMALL
bcc


@<TRIPOS>ATOM
      1 N3           5.6070     2.8880    -0.0980 nu         1 59N      -0.856900
      2 C4           4.2900     2.7070     0.0180 ca         1 59N       0.955900
      3 C6           2.4730     1.4390    -0.4650 ca         1 59N       0.650200
      4 C8           0.5390     0.0910    -1.0230 c          1 59N       0.719700
      5 C10         -0.2810     0.9870    -0.2160 cc         1 59N      -0.171400
      6 C13          2.3070     3.4250     0.8180 ca         1 59N       0.535200
      7 C15         -1.7160     0.6740    -0.1010 ca         1 59N      -0.007800
      8 C17         -3.5220    -0.7510     0.6750 ca         1 59N      -0.109000
      9 C20         -2.6760     1.5430    -0.6120 ca         1 59N      -0.119000
     10 C21         -5.9140    -0.1460     0.2790 cp         1 59N       0.367500
     11 C24         -8.5260    -0.6290     0.4920 ca         1 59N       0.282900
     12 C26         -6.4330    -0.9730     1.2780 ca         1 59N       0.290900
     13 C1           7.8140     3.8760     0.1410 c3         1 59N      -0.116100
     14 C2           6.3420     3.9880     0.4910 c3         1 59N       0.239800
     15 N5           3.7730     1.6270    -0.5740 nb         1 59N      -0.846000
     16 N7           1.9080     0.3420    -1.0590 n          1 59N      -0.430300
     17 O9           0.0660    -0.8430    -1.6480 o          1 59N      -0.596500
     18 C11          0.2630     2.0780     0.3650 cd         1 59N       0.022800
     19 C12          1.6500     2.3370     0.2440 ca         1 59N      -0.443400
     20 N14          3.5990     3.6280     0.7200 nb         1 59N      -0.788000
     21 C16         -2.1740    -0.4720     0.5470 ca         1 59N       0.048400
     22 C18         -4.4700     0.1290     0.1530 cp         1 59N      -0.135500
     23 C19         -4.0300     1.2810    -0.4940 ca         1 59N      -0.088000
     24 N22         -6.7280     0.4450    -0.5890 nb         1 59N      -0.652000
     25 C23         -8.0320     0.2190    -0.4990 ca         1 59N       0.317300
     26 N25         -7.7300    -1.2120     1.3750 nb         1 59N      -0.628000
     27 C27         -8.9330     0.8940    -1.4810 c3         1 59N      -0.141400
     28 CL1         -1.0370    -1.5700     1.2540 cl         1 59N      -0.101400
     29 C29          2.7440    -0.6400    -1.7530 c3         1 59N       0.097000
     30 C30          2.9830    -1.9070    -0.9330 c6         1 59N      -0.080700
     31 C32          3.8250    -2.8810    -1.7550 c6         1 59N      -0.066900
     32 C33          4.1030    -4.1760    -0.9980 c6         1 59N      -0.089900
     33 C34          4.7630    -3.9130     0.3500 c6         1 59N       0.152500
     34 C36          3.9200    -2.9330     1.1650 c6         1 59N      -0.089900
     35 C37          3.6540    -1.6340     0.4110 c6         1 59N      -0.066900
     36 N38          5.0310    -5.1770     1.0260 n8         1 59N      -0.875800
     37 H1           6.1150     2.1840    -0.6100 hn         1 59N       0.454800
     38 H2           1.7340     4.1540     1.3820 h4         1 59N       0.024100
     39 H3          -3.8250    -1.6630     1.1700 ha         1 59N       0.148000
     40 H4          -2.3490     2.4420    -1.1200 ha         1 59N       0.138000
     41 H5          -9.5880    -0.8290     0.5700 h4         1 59N       0.030100
     42 H6          -5.7950    -1.4360     2.0210 h4         1 59N       0.033100
     43 H7           8.2420     2.9450     0.5150 hc         1 59N       0.046367
     44 H8           7.9700     3.9160    -0.9370 hc         1 59N       0.046367
     45 H9           8.3650     4.7010     0.5890 hc         1 59N       0.046367
     46 H10          5.9440     4.9380     0.1280 h1         1 59N       0.055700
     47 H11          6.2130     3.9870     1.5760 h1         1 59N       0.055700
     48 H12         -0.3500     2.7560     0.9480 ha         1 59N       0.141000
     49 H13         -4.7490     1.9770    -0.9040 ha         1 59N       0.155000
     50 H14         -8.8330     1.9780    -1.4100 hc         1 59N       0.055033
     51 H15         -8.6720     0.6090    -2.5010 hc         1 59N       0.055033
     52 H16         -9.9760     0.6350    -1.3110 hc         1 59N       0.055033
     53 H17          2.2580    -0.8910    -2.6950 h1         1 59N       0.073700
     54 H18          3.6910    -0.1600    -1.9860 h1         1 59N       0.073700
     55 H19          2.0140    -2.3830    -0.7390 hc         1 59N       0.068700
     56 H20          3.3240    -3.1050    -2.7010 hc         1 59N       0.041950
     57 H21          4.7760    -2.4010    -2.0160 hc         1 59N       0.041950
     58 H22          3.1580    -4.7100    -0.8370 hc         1 59N       0.042700
     59 H23          4.7380    -4.8330    -1.5970 hc         1 59N       0.042700
     60 H24          5.7350    -3.4410     0.1580 h1         1 59N       0.056700
     61 H25          2.9660    -3.4140     1.4160 hc         1 59N       0.042700
     62 H26          4.4190    -2.7190     2.1150 hc         1 59N       0.042700
     63 H27          4.5990    -1.1050     0.2480 hc         1 59N       0.041950
     64 H28          3.0320    -0.9780     1.0260 hc         1 59N       0.041950
     65 H29          5.4830    -4.9890     1.9140 hn         1 59N       0.333800
     66 H31          4.1480    -5.6160     1.2660 hn         1 59N       0.333800
@<TRIPOS>BOND
     1     1     2 1   
     2     1    14 1   
     3     1    37 1   
     4     2    15 ar  
     5     2    20 ar  
     6     3    15 ar  
     7     3    16 1   
     8     3    19 ar  
     9     4     5 1   
    10     4    16 1   
    11     4    17 2   
    12     5     7 1   
    13     5    18 2   
    14     6    19 ar  
    15     6    20 ar  
    16     6    38 1   
    17     7     9 ar  
    18     7    21 ar  
    19     8    21 ar  
    20     8    22 ar  
    21     8    39 1   
    22     9    23 ar  
    23     9    40 1   
    24    10    12 ar  
    25    10    22 1   
    26    10    24 ar  
    27    11    25 ar  
    28    11    26 ar  
    29    11    41 1   
    30    12    26 ar  
    31    12    42 1   
    32    13    14 1   
    33    13    43 1   
    34    13    44 1   
    35    13    45 1   
    36    14    46 1   
    37    14    47 1   
    38    16    29 1   
    39    18    19 1   
    40    18    48 1   
    41    21    28 1   
    42    22    23 ar  
    43    23    49 1   
    44    24    25 ar  
    45    25    27 1   
    46    27    50 1   
    47    27    51 1   
    48    27    52 1   
    49    29    30 1   
    50    29    53 1   
    51    29    54 1   
    52    30    31 1   
    53    30    35 1   
    54    30    55 1   
    55    31    32 1   
    56    31    56 1   
    57    31    57 1   
    58    32    33 1   
    59    32    58 1   
    60    32    59 1   
    61    33    34 1   
    62    33    36 1   
    63    33    60 1   
    64    34    35 1   
    65    34    61 1   
    66    34    62 1   
    67    35    63 1   
    68    35    64 1   
    69    36    65 1   
    70    36    66 1   
@<TRIPOS>SUBSTRUCTURE
     1 59N         1 TEMP              0 ****  ****    0 ROOT
