@<TRIPOS>MOLECULE
59O
   56    58     1     0     0
SMALL
No Charge or Current Charge


@<TRIPOS>ATOM
      1 C10         10.3780   -10.5560    -1.6430 c3         1 59O      -0.052800
      2 C9          15.6390    -8.0150    -2.1620 c          1 59O       0.614700
      3 O6          21.6950    -5.3640    -0.1210 oh         1 59O      -0.711000
      4 C6          20.3250    -5.7810     0.0440 c3         1 59O       0.169600
      5 C7          22.8670    -9.6300    -2.0260 c3         1 59O       0.151900
      6 C4          18.3770    -7.2610    -0.8630 c6         1 59O       0.125300
      7 C3          18.0610    -8.3590    -1.9410 c6         1 59O       0.175300
      8 C1          20.5110    -8.9960    -1.9220 c6         1 59O       0.378300
      9 C2          19.0530    -9.5590    -1.8150 c6         1 59O       0.158300
     10 C5          19.8780    -6.8500    -1.0080 c6         1 59O       0.151300
     11 O5          20.7270    -8.0180    -0.8830 os         1 59O      -0.453000
     12 O1          21.5040   -10.0280    -1.8030 os         1 59O      -0.443000
     13 O2          18.8400   -10.2620    -0.5550 os         1 59O      -0.394100
     14 C8          19.2290   -11.5710    -0.4010 c          1 59O       0.633700
     15 O3          16.6960    -8.8380    -1.8660 os         1 59O      -0.407100
     16 O8          15.7700    -6.8660    -2.5620 o          1 59O      -0.505000
     17 O7          19.6480   -12.2760    -1.3080 o          1 59O      -0.458000
     18 CA1         19.1310   -12.0480     1.0260 ca         1 59O      -0.062600
     19 CB1         14.2920    -8.6820    -2.0290 ca         1 59O      -0.154600
     20 CB2         13.1160    -7.9000    -2.0450 ca         1 59O      -0.043000
     21 CB6         14.1760   -10.0830    -1.8950 ca         1 59O      -0.043000
     22 CB3         11.8540    -8.5070    -1.9190 ca         1 59O      -0.132000
     23 CB5         12.9120   -10.6850    -1.7690 ca         1 59O      -0.132000
     24 CB4         11.7450    -9.9010    -1.7760 ca         1 59O      -0.041300
     25 CA6         20.2660   -12.6620     1.6010 ca         1 59O      -0.064000
     26 CA2         17.9610   -11.8720     1.8190 ca         1 59O      -0.114200
     27 CA5         20.2570   -13.0710     2.9450 ca         1 59O      -0.080000
     28 CA3         17.9700   -12.2800     3.1740 ca         1 59O      -0.063000
     29 N1          16.7000   -11.3180     1.2420 no         1 59O       0.705200
     30 CA4         19.1140   -12.8730     3.7300 ca         1 59O       0.121000
     31 Cl24        19.1060   -13.3840     5.4130 cl         1 59O      -0.170000
     32 ON1         15.9990   -10.6040     1.9690 o          1 59O      -0.385500
     33 ON2         16.3290   -11.7620     0.1500 o          1 59O      -0.385500
     34 H1           9.9760   -10.8220    -2.6280 hc         1 59O       0.045700
     35 H2          10.4310   -11.4720    -1.0440 hc         1 59O       0.045700
     36 H3           9.6590    -9.8860    -1.1570 hc         1 59O       0.045700
     37 H4          21.9050    -4.7640     0.6320 ho         1 59O       0.507000
     38 H6          20.1810    -6.2000     1.0490 h1         1 59O       0.032200
     39 H7          23.5360   -10.4960    -1.9400 h1         1 59O       0.039700
     40 H8          22.9900    -9.2020    -3.0300 h1         1 59O       0.039700
     41 H9          23.1850    -8.8820    -1.2880 h1         1 59O       0.039700
     42 H10         17.7690    -6.3680    -1.0690 h1         1 59O       0.055700
     43 H11         18.2040    -7.9150    -2.9380 h1         1 59O       0.070700
     44 H12         20.6290    -8.5100    -2.9020 h2         1 59O       0.027700
     45 H13         18.8660   -10.2440    -2.6530 h1         1 59O       0.092700
     46 H14         20.0300    -6.4120    -2.0060 h1         1 59O       0.048700
     47 H15         18.4320    -8.6710     0.4900 ho         1 59O       0.504000
     48 H16         13.1770    -6.8190    -2.1520 ha         1 59O       0.138500
     49 H17         15.0600   -10.7160    -1.8990 ha         1 59O       0.138500
     50 H18         10.9590    -7.8890    -1.9330 ha         1 59O       0.117000
     51 H19         12.8420   -11.7660    -1.6680 ha         1 59O       0.117000
     52 H20         21.1660   -12.8050     1.0050 ha         1 59O       0.147000
     53 H21         21.1400   -13.5350     3.3790 ha         1 59O       0.141000
     54 H22         17.0850   -12.1570     3.7950 ha         1 59O       0.161000
     55 O4          18.0820    -7.7490     0.4640 oh         1 59O      -0.677000
     56 H5          19.6560    -4.9140    -0.0470 h1         1 59O       0.032200
@<TRIPOS>BOND
     1     1    24 1   
     2     1    34 1   
     3     1    35 1   
     4     1    36 1   
     5     2    15 1   
     6     2    16 2   
     7     2    19 1   
     8     3     4 1   
     9     3    37 1   
    10     4    10 1   
    11     4    38 1   
    12     4    56 1   
    13     5    12 1   
    14     5    39 1   
    15     5    40 1   
    16     5    41 1   
    17     6     7 1   
    18     6    10 1   
    19     6    42 1   
    20     6    55 1   
    21     7     9 1   
    22     7    15 1   
    23     7    43 1   
    24     8     9 1   
    25     8    11 1   
    26     8    12 1   
    27     8    44 1   
    28     9    13 1   
    29     9    45 1   
    30    10    11 1   
    31    10    46 1   
    32    13    14 1   
    33    14    17 2   
    34    14    18 1   
    35    18    25 ar  
    36    18    26 ar  
    37    19    20 ar  
    38    19    21 ar  
    39    20    22 ar  
    40    20    48 1   
    41    21    23 ar  
    42    21    49 1   
    43    22    24 ar  
    44    22    50 1   
    45    23    24 ar  
    46    23    51 1   
    47    25    27 ar  
    48    25    52 1   
    49    26    28 ar  
    50    26    29 1   
    51    27    30 ar  
    52    27    53 1   
    53    28    30 ar  
    54    28    54 1   
    55    29    32 1   
    56    29    33 1   
    57    30    31 1   
    58    47    55 1   
@<TRIPOS>SUBSTRUCTURE
     1 59O         1 TEMP              0 ****  ****    0 ROOT
