@<TRIPOS>MOLECULE
59O
   56    58     1     0     0
SMALL
abcg2


@<TRIPOS>ATOM
      1 C10         10.4210   -10.5270    -1.9330 c3         1 59O      -0.052800
      2 C9          15.6780    -8.1450    -2.3180 c          1 59O       0.614700
      3 O6          21.4780    -5.5660     0.0340 oh         1 59O      -0.711000
      4 C6          20.1560    -5.9820     0.2710 c3         1 59O       0.169600
      5 C7          22.5760    -9.7990    -1.8020 c3         1 59O       0.151900
      6 C4          18.2540    -7.3010    -0.7430 c6         1 59O       0.125300
      7 C3          17.9780    -8.3590    -1.8120 c6         1 59O       0.175300
      8 C1          20.3580    -9.0180    -1.7530 c6         1 59O       0.378300
      9 C2          18.9220    -9.5470    -1.7440 c6         1 59O       0.158300
     10 C5          19.7480    -6.9540    -0.8150 c6         1 59O       0.151300
     11 O5          20.5420    -8.1170    -0.6980 os         1 59O      -0.453000
     12 O1          21.2060   -10.0840    -1.5850 os         1 59O      -0.443000
     13 O2          18.7400   -10.2550    -0.5220 os         1 59O      -0.394100
     14 C8          18.9020   -11.5680    -0.4930 c          1 59O       0.633700
     15 O3          16.6500    -8.8570    -1.7500 os         1 59O      -0.407100
     16 O8          15.8660    -7.0900    -2.8720 o          1 59O      -0.505000
     17 O7          18.9630   -12.3000    -1.4410 o          1 59O      -0.458000
     18 CA1         19.1050   -12.0360     0.9130 ca         1 59O      -0.062600
     19 CB1         14.3510    -8.7870    -2.1940 ca         1 59O      -0.154600
     20 CB2         13.2280    -8.0670    -2.5990 ca         1 59O      -0.043000
     21 CB6         14.1820   -10.0780    -1.6960 ca         1 59O      -0.043000
     22 CB3         11.9660    -8.6240    -2.5020 ca         1 59O      -0.132000
     23 CB5         12.9160   -10.6310    -1.6110 ca         1 59O      -0.132000
     24 CB4         11.7870    -9.9160    -2.0080 ca         1 59O      -0.041300
     25 CA6         20.2400   -12.7930     1.1700 ca         1 59O      -0.064000
     26 CA2         18.3020   -11.6880     1.9920 ca         1 59O      -0.114200
     27 CA5         20.5690   -13.1770     2.4610 ca         1 59O      -0.080000
     28 CA3         18.6070   -12.0470     3.2910 ca         1 59O      -0.063000
     29 N1          17.0440   -10.9920     1.7650 no         1 59O       0.705200
     30 CA4         19.7520   -12.7950     3.5130 ca         1 59O       0.121000
     31 CL24        20.1520   -13.2620     5.1210 cl         1 59O      -0.170000
     32 ON1         16.6760   -10.2000     2.5950 o          1 59O      -0.385500
     33 ON2         16.4340   -11.2850     0.7650 o          1 59O      -0.385500
     34 H1          10.1740   -11.0310    -2.8690 hc         1 59O       0.045700
     35 H2          10.3570   -11.2700    -1.1390 hc         1 59O       0.045700
     36 H3           9.6550    -9.7730    -1.7590 hc         1 59O       0.045700
     37 H4          21.7450    -4.9930     0.7580 ho         1 59O       0.507000
     38 H6          20.0520    -6.4630     1.2510 h1         1 59O       0.032200
     39 H7          23.1070   -10.7480    -1.7820 h1         1 59O       0.039700
     40 H8          22.7370    -9.3300    -2.7780 h1         1 59O       0.039700
     41 H9          22.9920    -9.1490    -1.0290 h1         1 59O       0.039700
     42 H10         17.7000    -6.3940    -1.0120 h1         1 59O       0.055700
     43 H11         18.1580    -7.8900    -2.7860 h1         1 59O       0.070700
     44 H12         20.5370    -8.5090    -2.7190 h2         1 59O       0.027700
     45 H13         18.7530   -10.1990    -2.6040 h1         1 59O       0.092700
     46 H14         19.9240    -6.4750    -1.7920 h1         1 59O       0.048700
     47 H15         17.5420    -7.0480     1.0450 ho         1 59O       0.504000
     48 H16         13.3380    -7.0610    -2.9830 ha         1 59O       0.138500
     49 H17         15.0330   -10.6630    -1.3790 ha         1 59O       0.138500
     50 H18         11.1040    -8.0460    -2.8120 ha         1 59O       0.117000
     51 H19         12.8030   -11.6350    -1.2220 ha         1 59O       0.117000
     52 H20         20.8960   -13.0700     0.3560 ha         1 59O       0.147000
     53 H21         21.4590   -13.7630     2.6400 ha         1 59O       0.141000
     54 H22         17.9560   -11.7760     4.1110 ha         1 59O       0.161000
     55 O4          17.8600    -7.7840     0.5140 oh         1 59O      -0.677000
     56 H5          19.4530    -5.1390     0.2490 h1         1 59O       0.032200
@<TRIPOS>BOND
     1     1    24 1   
     2     1    34 1   
     3     1    35 1   
     4     1    36 1   
     5     2    15 1   
     6     2    16 2   
     7     2    19 1   
     8     3     4 1   
     9     3    37 1   
    10     4    10 1   
    11     4    38 1   
    12     4    56 1   
    13     5    12 1   
    14     5    39 1   
    15     5    40 1   
    16     5    41 1   
    17     6     7 1   
    18     6    10 1   
    19     6    42 1   
    20     6    55 1   
    21     7     9 1   
    22     7    15 1   
    23     7    43 1   
    24     8     9 1   
    25     8    11 1   
    26     8    12 1   
    27     8    44 1   
    28     9    13 1   
    29     9    45 1   
    30    10    11 1   
    31    10    46 1   
    32    13    14 1   
    33    14    17 2   
    34    14    18 1   
    35    18    25 ar  
    36    18    26 ar  
    37    19    20 ar  
    38    19    21 ar  
    39    20    22 ar  
    40    20    48 1   
    41    21    23 ar  
    42    21    49 1   
    43    22    24 ar  
    44    22    50 1   
    45    23    24 ar  
    46    23    51 1   
    47    25    27 ar  
    48    25    52 1   
    49    26    28 ar  
    50    26    29 1   
    51    27    30 ar  
    52    27    53 1   
    53    28    30 ar  
    54    28    54 1   
    55    29    32 1   
    56    29    33 1   
    57    30    31 1   
    58    47    55 1   
@<TRIPOS>SUBSTRUCTURE
     1 59O         1 TEMP              0 ****  ****    0 ROOT
