@<TRIPOS>MOLECULE
59Q
   41    44     1     0     0
SMALL
No Charge or Current Charge


@<TRIPOS>ATOM
      1 C4          -3.9300    -2.0040     0.2880 ca         1 59Q       0.158300
      2 C5          -2.7390    -1.3140     0.2570 ca         1 59Q      -0.225800
      3 C6          -1.5430    -2.0320     0.0870 ca         1 59Q       0.437900
      4 N1          -1.5800    -3.3740    -0.0610 nb         1 59Q      -0.281000
      5 N3          -3.9920    -3.3410     0.1520 nb         1 59Q      -0.175000
      6 FAC         -6.2050     1.8190    -1.2950 f          1 59Q      -0.112333
      7 CBB         -5.2410     2.5310    -0.6670 c3         1 59Q       0.301000
      8 FAD         -4.1800     2.6260    -1.5000 f          1 59Q      -0.112333
      9 FAE         -5.7180     3.7790    -0.4580 f          1 59Q      -0.112333
     10 CAS         -4.2830     0.4770     0.5220 cc         1 59Q      -0.108600
     11 SAR         -5.3560    -0.9550     0.5080 ss         1 59Q      -0.061900
     12 CAG         -2.9590     0.1100     0.3850 cd         1 59Q      -0.120200
     13 C2          -2.8020    -3.9600    -0.0200 ca         1 59Q       0.175900
     14 NBA         -0.2830    -1.4010     0.0630 nh         1 59Q      -0.786300
     15 CAK          0.2090    -0.7130     1.2970 c6         1 59Q       0.210300
     16 CAI          1.3100     0.3490     0.9900 c6         1 59Q       0.203800
     17 CAJ          0.8440    -1.9950    -0.7260 c6         1 59Q       0.210300
     18 CAH          1.9630    -0.9550    -1.0510 c6         1 59Q       0.203800
     19 NAZ          2.4330    -0.2010     0.1590 nh         1 59Q      -0.760300
     20 CAU          3.7250     0.2840     0.2730 cc         1 59Q       0.683300
     21 SAQ          4.9780    -0.1350    -0.8570 ss         1 59Q      -0.255800
     22 NAP          4.1070     1.0960     1.2490 nd         1 59Q      -0.427000
     23 NAO          5.4430     1.4420     1.1510 nd         1 59Q      -0.254000
     24 CAT          6.0210     0.8740     0.1030 cc         1 59Q       0.274700
     25 CAY          7.4730     1.0700    -0.2540 c3         1 59Q       0.161000
     26 FAA          8.1420    -0.1070    -0.2630 f          1 59Q      -0.111500
     27 FAB          7.6080     1.6110    -1.4880 f          1 59Q      -0.111500
     28 H1          -4.1030     2.5110     1.1690 hc         1 59Q       0.089200
     29 H2          -5.7180     1.8480     1.3260 hc         1 59Q       0.089200
     30 H3          -2.1550     0.8410     0.3480 ha         1 59Q       0.204000
     31 H4          -2.8280    -5.0420    -0.1360 h5         1 59Q       0.052100
     32 H5          -0.6160    -0.2170     1.8280 h1         1 59Q       0.069450
     33 H6           0.6290    -1.4560     1.9910 h1         1 59Q       0.069450
     34 H7           0.8420     1.1920     0.4610 h1         1 59Q       0.067450
     35 H8           1.6750     0.7400     1.9500 h1         1 59Q       0.067450
     36 H9           1.2950    -2.8270    -0.1650 h1         1 59Q       0.069450
     37 H10          0.4730    -2.4070    -1.6760 h1         1 59Q       0.069450
     38 H11          2.7850    -1.4990    -1.5350 h1         1 59Q       0.067450
     39 H12          1.5710    -0.2450    -1.7940 h1         1 59Q       0.067450
     40 H13          7.9520     1.7360     0.4710 h2         1 59Q       0.093700
     41 CAL         -4.8400     1.8710     0.6700 c3         1 59Q      -0.079200
@<TRIPOS>BOND
     1     1     2 ar  
     2     1     5 ar  
     3     1    11 1   
     4     2     3 ar  
     5     2    12 1   
     6     3     4 ar  
     7     3    14 1   
     8     4    13 ar  
     9     5    13 ar  
    10     6     7 1   
    11     7     8 1   
    12     7     9 1   
    13     7    41 1   
    14    10    11 1   
    15    10    12 2   
    16    10    41 1   
    17    12    30 1   
    18    13    31 1   
    19    14    15 1   
    20    14    17 1   
    21    15    16 1   
    22    15    32 1   
    23    15    33 1   
    24    16    19 1   
    25    16    34 1   
    26    16    35 1   
    27    17    18 1   
    28    17    36 1   
    29    17    37 1   
    30    18    19 1   
    31    18    38 1   
    32    18    39 1   
    33    19    20 1   
    34    20    21 1   
    35    20    22 2   
    36    21    24 1   
    37    22    23 1   
    38    23    24 2   
    39    24    25 1   
    40    25    26 1   
    41    25    27 1   
    42    25    40 1   
    43    28    41 1   
    44    29    41 1   
@<TRIPOS>SUBSTRUCTURE
     1 59Q         1 TEMP              0 ****  ****    0 ROOT
