@<TRIPOS>MOLECULE
59Q
   41    44     1     0     0
SMALL
bcc


@<TRIPOS>ATOM
      1 C4          -3.8080    -1.8640    -0.0160 ca         1 59Q       0.486600
      2 C5          -2.5870    -1.2210     0.2020 ca         1 59Q      -0.356400
      3 C6          -1.4400    -2.0380     0.0090 ca         1 59Q       0.766200
      4 N1          -1.6020    -3.2750    -0.4570 nb         1 59Q      -0.807000
      5 N3          -3.9660    -3.1210    -0.4190 nb         1 59Q      -0.701000
      6 FAC         -6.1670     1.9290    -0.9300 f          1 59Q      -0.233633
      7 CBB         -5.1290     2.5860    -0.3910 c3         1 59Q       0.664900
      8 FAD         -4.1990     2.6910    -1.3480 f          1 59Q      -0.233633
      9 FAE         -5.5520     3.8260    -0.1130 f          1 59Q      -0.233633
     10 CAS         -4.0710     0.5320     0.5540 cc         1 59Q      -0.108600
     11 SAR         -5.1450    -0.7940     0.2220 ss         1 59Q      -0.061900
     12 CAG         -2.7690     0.1680     0.5010 cd         1 59Q      -0.070200
     13 C2          -2.8280    -3.7440    -0.6470 ca         1 59Q       0.701900
     14 NBA         -0.1760    -1.6140     0.2390 nh         1 59Q      -0.786300
     15 CAK          0.2000    -0.7060     1.3060 c6         1 59Q       0.210300
     16 CAI          1.1740     0.3360     0.7990 c6         1 59Q       0.203800
     17 CAJ          0.9730    -2.3400    -0.2610 c6         1 59Q       0.210300
     18 CAH          1.9910    -1.3510    -0.8090 c6         1 59Q       0.203800
     19 NAZ          2.3100    -0.3250     0.1700 nh         1 59Q      -0.760300
     20 CAU          3.5060     0.2780     0.1900 cc         1 59Q       0.683300
     21 SAQ          4.8670    -0.3080    -0.7280 ss         1 59Q      -0.255800
     22 NAP          3.7840     1.3420     0.9030 nd         1 59Q      -0.427000
     23 NAO          5.0630     1.7200     0.7890 nd         1 59Q      -0.254000
     24 CAT          5.7590     0.9890    -0.0040 cc         1 59Q       0.274700
     25 CAY          7.1960     1.2280    -0.2800 c3         1 59Q       0.403600
     26 FAA          7.9230     0.1290     0.0530 f          1 59Q      -0.232800
     27 FAB          7.3880     1.4180    -1.6130 f          1 59Q      -0.232800
     28 H1          -3.7990     2.5090     1.2590 hc         1 59Q       0.089200
     29 H2          -5.3990     1.8620     1.5870 hc         1 59Q       0.089200
     30 H3          -1.9770     0.8880     0.6440 ha         1 59Q       0.154000
     31 H4          -2.8960    -4.7600    -1.0200 h5         1 59Q       0.052100
     32 H5          -0.6650    -0.2240     1.7480 h1         1 59Q       0.069450
     33 H6           0.6770    -1.2880     2.1030 h1         1 59Q       0.069450
     34 H7           0.6810     1.0020     0.0810 h1         1 59Q       0.067450
     35 H8           1.5260     0.9370     1.6340 h1         1 59Q       0.067450
     36 H9           1.4250    -2.9360     0.5390 h1         1 59Q       0.069450
     37 H10          0.6780    -3.0140    -1.0590 h1         1 59Q       0.069450
     38 H11          2.8890    -1.9130    -1.0670 h1         1 59Q       0.067450
     39 H12          1.6070    -0.8930    -1.7270 h1         1 59Q       0.067450
     40 H13          7.5660     2.0930     0.2700 h2         1 59Q       0.093700
     41 CAL         -4.6000     1.8960     0.8430 c3         1 59Q      -0.079200
@<TRIPOS>BOND
     1     1     2 ar  
     2     1     5 ar  
     3     1    11 1   
     4     2     3 ar  
     5     2    12 1   
     6     3     4 ar  
     7     3    14 1   
     8     4    13 ar  
     9     5    13 ar  
    10     6     7 1   
    11     7     8 1   
    12     7     9 1   
    13     7    41 1   
    14    10    11 1   
    15    10    12 2   
    16    10    41 1   
    17    12    30 1   
    18    13    31 1   
    19    14    15 1   
    20    14    17 1   
    21    15    16 1   
    22    15    32 1   
    23    15    33 1   
    24    16    19 1   
    25    16    34 1   
    26    16    35 1   
    27    17    18 1   
    28    17    36 1   
    29    17    37 1   
    30    18    19 1   
    31    18    38 1   
    32    18    39 1   
    33    19    20 1   
    34    20    21 1   
    35    20    22 2   
    36    21    24 1   
    37    22    23 1   
    38    23    24 2   
    39    24    25 1   
    40    25    26 1   
    41    25    27 1   
    42    25    40 1   
    43    28    41 1   
    44    29    41 1   
@<TRIPOS>SUBSTRUCTURE
     1 59Q         1 TEMP              0 ****  ****    0 ROOT
