@<TRIPOS>MOLECULE
59R
   53    55     1     0     0
SMALL
No Charge or Current Charge


@<TRIPOS>ATOM
      1 C1           0.0930    -2.9830     1.3960 c3         1 59R       0.155600
      2 O1           1.0280    -2.0430     0.8200 os         1 59R      -0.461000
      3 C2          -1.2450    -2.2450     1.6590 c3         1 59R       0.161800
      4 N2          -1.8070    -1.6850     0.4080 n7         1 59R      -0.863400
      5 C3          -2.9640    -0.7880     0.5840 c3         1 59R       0.160800
      6 C4          -3.4540    -0.2620    -0.7800 c3         1 59R      -0.037100
      7 N1           2.9840    -2.7060    -1.8630 n7         1 59R      -0.822400
      8 C11         -4.6490     0.6700    -0.6360 ca         1 59R      -0.051300
      9 C12         -5.9610     0.1580    -0.6800 ca         1 59R      -0.151000
     10 C13         -7.0590     1.0220    -0.5420 ca         1 59R       0.171000
     11 F13         -8.3140     0.5230    -0.5850 f          1 59R      -0.181000
     12 C14         -6.8620     2.3990    -0.3580 ca         1 59R      -0.153000
     13 C15         -5.5560     2.9170    -0.3110 ca         1 59R      -0.083000
     14 C16         -4.4540     2.0540    -0.4490 ca         1 59R      -0.125000
     15 N1A          5.1940     1.1900     0.8800 nb         1 59R      -0.756000
     16 C8           2.2910    -3.4480    -0.7680 c5         1 59R       0.099800
     17 C2A          3.9630     1.1240     0.3230 ca         1 59R       0.394300
     18 C9           2.3600    -2.5320     0.5110 c5         1 59R       0.140300
     19 C3A          3.5260     2.0310    -0.6640 ca         1 59R      -0.213000
     20 C10          3.2300    -1.3290     0.0300 c5         1 59R      -0.089700
     21 C4A          4.3920     3.0480    -1.0970 ca         1 59R      -0.035000
     22 C5           2.8440    -1.2860    -1.4690 c5         1 59R       0.134800
     23 C5A          5.6660     3.1070    -0.5130 ca         1 59R      -0.232000
     24 C6A          5.9930     2.1590     0.4590 ca         1 59R       0.596900
     25 N6A          7.1750     2.1130     1.0770 nv         1 59R      -1.052900
     26 C7A          3.0520     0.0050     0.8090 c3         1 59R      -0.105700
     27 H1          -0.0880    -3.8300     0.7210 h1         1 59R       0.031700
     28 H1A          0.4780    -3.3770     2.3450 h1         1 59R       0.031700
     29 H2          -1.9560    -2.9450     2.1200 h1         1 59R       0.037700
     30 H2A         -1.0550    -1.4430     2.3850 h1         1 59R       0.037700
     31 HN2         -1.0470    -1.1520    -0.0340 hn         1 59R       0.420000
     32 H3          -3.7890    -1.3210     1.0760 h1         1 59R       0.032700
     33 H3A         -2.6930     0.0670     1.2180 h1         1 59R       0.032700
     34 H4          -2.6300     0.2590    -1.2830 hc         1 59R       0.057200
     35 H4A         -3.7150    -1.1140    -1.4200 hc         1 59R       0.057200
     36 HN1          3.9840    -2.9400    -1.8300 hn         1 59R       0.396000
     37 H12         -6.1310    -0.9060    -0.8200 ha         1 59R       0.132000
     38 H14         -7.7180     3.0600    -0.2510 ha         1 59R       0.131000
     39 H15         -5.3970     3.9830    -0.1670 ha         1 59R       0.116000
     40 H16         -3.4460     2.4610    -0.4100 ha         1 59R       0.116000
     41 H6           1.2480    -3.6430    -1.0520 h1         1 59R       0.061200
     42 H2'A         2.7670    -4.4230    -0.5910 h1         1 59R       0.061200
     43 H8           2.7840    -3.0360     1.3900 h1         1 59R       0.036700
     44 H3AA         2.5300     1.9430    -1.0870 ha         1 59R       0.124000
     45 H9           4.2900    -1.5930     0.1290 hc         1 59R       0.065700
     46 H4AA         4.0860     3.7630    -1.8580 ha         1 59R       0.115000
     47 H5           3.5090    -0.6340    -2.0540 h1         1 59R       0.060200
     48 H5'A         1.8110    -0.9340    -1.6100 h1         1 59R       0.060200
     49 H5A          6.3790     3.8710    -0.8070 ha         1 59R       0.120000
     50 HN6A         7.3580     1.2490     1.5720 hn         1 59R       0.467500
     51 HN6B         7.9650     2.5490     0.6150 hn         1 59R       0.467500
     52 H7A          3.2310    -0.1740     1.8760 hc         1 59R       0.063200
     53 H7AA         2.0120     0.3420     0.7410 hc         1 59R       0.063200
@<TRIPOS>BOND
     1     1     2 1   
     2     1     3 1   
     3     1    27 1   
     4     1    28 1   
     5     2    18 1   
     6     3     4 1   
     7     3    29 1   
     8     3    30 1   
     9     4     5 1   
    10     4    31 1   
    11     5     6 1   
    12     5    32 1   
    13     5    33 1   
    14     6     8 1   
    15     6    34 1   
    16     6    35 1   
    17     7    16 1   
    18     7    22 1   
    19     7    36 1   
    20     8     9 ar  
    21     8    14 ar  
    22     9    10 ar  
    23     9    37 1   
    24    10    11 1   
    25    10    12 ar  
    26    12    13 ar  
    27    12    38 1   
    28    13    14 ar  
    29    13    39 1   
    30    14    40 1   
    31    15    17 ar  
    32    15    24 ar  
    33    16    18 1   
    34    16    41 1   
    35    16    42 1   
    36    17    19 ar  
    37    17    26 1   
    38    18    20 1   
    39    18    43 1   
    40    19    21 ar  
    41    19    44 1   
    42    20    22 1   
    43    20    26 1   
    44    20    45 1   
    45    21    23 ar  
    46    21    46 1   
    47    22    47 1   
    48    22    48 1   
    49    23    24 ar  
    50    23    49 1   
    51    24    25 1   
    52    25    50 1   
    53    25    51 1   
    54    26    52 1   
    55    26    53 1   
@<TRIPOS>SUBSTRUCTURE
     1 59R         1 TEMP              0 ****  ****    0 ROOT
