@<TRIPOS>MOLECULE
59R
   53    55     1     0     0
SMALL
bcc


@<TRIPOS>ATOM
      1 C1           0.0460    -2.7330     1.1470 c3         1 59R       0.132400
      2 O1           0.9800    -1.8070     0.6440 os         1 59R      -0.414600
      3 C2          -1.2480    -2.0070     1.4390 c3         1 59R       0.161800
      4 N2          -1.8590    -1.5010     0.2260 n7         1 59R      -0.808200
      5 C3          -3.0530    -0.7230     0.4840 c3         1 59R       0.160800
      6 C4          -3.6730    -0.2350    -0.8240 c3         1 59R      -0.037100
      7 N1           3.4440    -2.8860    -1.6310 n7         1 59R      -0.767200
      8 C11         -4.8860     0.6150    -0.5750 ca         1 59R      -0.051300
      9 C12         -6.1040     0.0170    -0.2580 ca         1 59R      -0.169000
     10 C13         -7.1980     0.8130     0.0140 ca         1 59R       0.135900
     11 F13         -8.3670     0.2200     0.3130 f          1 59R      -0.145900
     12 C14         -7.1390     2.1940    -0.0130 ca         1 59R      -0.171000
     13 C15         -5.9260     2.7840    -0.3360 ca         1 59R      -0.101000
     14 C16         -4.8110     2.0050    -0.6160 ca         1 59R      -0.143000
     15 N1A          5.0580     1.0740     0.8270 nb         1 59R      -0.756000
     16 C8           2.3170    -3.2940    -0.8020 c5         1 59R       0.099800
     17 C2A          3.9280     1.1790     0.1280 ca         1 59R       0.459600
     18 C9           2.2600    -2.3470     0.4270 c5         1 59R       0.117100
     19 C3A          3.7500     2.1370    -0.8580 ca         1 59R      -0.296300
     20 C10          3.2750    -1.2360     0.0820 c5         1 59R      -0.089700
     21 C4A          4.8010     3.0140    -1.1190 ca         1 59R      -0.053000
     22 C5           3.5520    -1.4510    -1.4110 c5         1 59R       0.134800
     23 C5A          5.9730     2.9120    -0.4030 ca         1 59R      -0.315300
     24 C6A          6.0590     1.9130     0.5820 ca         1 59R       0.662200
     25 N6A          7.1700     1.7980     1.3690 nv         1 59R      -0.942500
     26 C7A          2.8490     0.1820     0.4500 c3         1 59R      -0.105700
     27 H1          -0.1420    -3.5420     0.4280 h1         1 59R       0.031700
     28 H1A          0.4200    -3.2000     2.0700 h1         1 59R       0.031700
     29 H2          -1.9330    -2.7170     1.9100 h1         1 59R       0.037700
     30 H2A         -1.0580    -1.2190     2.1870 h1         1 59R       0.037700
     31 HN2         -1.1870    -0.9140    -0.2560 hn         1 59R       0.364800
     32 H3          -3.7730    -1.3570     1.0110 h1         1 59R       0.032700
     33 H3A         -2.8620     0.1420     1.1400 h1         1 59R       0.032700
     34 H4          -2.9290     0.3400    -1.3820 hc         1 59R       0.057200
     35 H4A         -3.9390    -1.1010    -1.4360 hc         1 59R       0.057200
     36 HN1          4.2850    -3.3270    -1.2760 hn         1 59R       0.340800
     37 H12         -6.2000    -1.0620    -0.2280 ha         1 59R       0.150000
     38 H14         -8.0160     2.7890     0.2030 ha         1 59R       0.149000
     39 H15         -5.8520     3.8630    -0.3710 ha         1 59R       0.134000
     40 H16         -3.8720     2.4830    -0.8680 ha         1 59R       0.134000
     41 H6           1.3900    -3.1750    -1.3730 h1         1 59R       0.061200
     42 H2'A         2.4020    -4.3460    -0.5320 h1         1 59R       0.061200
     43 H8           2.5850    -2.8730     1.3350 h1         1 59R       0.036700
     44 H3AA         2.8190     2.1990    -1.4050 ha         1 59R       0.142000
     45 H9           4.1980    -1.4590     0.6240 hc         1 59R       0.065700
     46 H4AA         4.7020     3.7730    -1.8840 ha         1 59R       0.133000
     47 H5           4.5270    -1.0790    -1.7260 h1         1 59R       0.060200
     48 H5'A         2.7950    -0.9340    -2.0130 h1         1 59R       0.060200
     49 H5A          6.8040     3.5790    -0.5890 ha         1 59R       0.138000
     50 HN6A         7.2880     0.9140     1.8370 hn         1 59R       0.412300
     51 HN6B         8.0290     2.1940     1.0250 hn         1 59R       0.412300
     52 H7A          2.6230     0.2350     1.5180 hc         1 59R       0.063200
     53 H7AA         1.9350     0.4550    -0.0800 hc         1 59R       0.063200
@<TRIPOS>BOND
     1     1     2 1   
     2     1     3 1   
     3     1    27 1   
     4     1    28 1   
     5     2    18 1   
     6     3     4 1   
     7     3    29 1   
     8     3    30 1   
     9     4     5 1   
    10     4    31 1   
    11     5     6 1   
    12     5    32 1   
    13     5    33 1   
    14     6     8 1   
    15     6    34 1   
    16     6    35 1   
    17     7    16 1   
    18     7    22 1   
    19     7    36 1   
    20     8     9 ar  
    21     8    14 ar  
    22     9    10 ar  
    23     9    37 1   
    24    10    11 1   
    25    10    12 ar  
    26    12    13 ar  
    27    12    38 1   
    28    13    14 ar  
    29    13    39 1   
    30    14    40 1   
    31    15    17 ar  
    32    15    24 ar  
    33    16    18 1   
    34    16    41 1   
    35    16    42 1   
    36    17    19 ar  
    37    17    26 1   
    38    18    20 1   
    39    18    43 1   
    40    19    21 ar  
    41    19    44 1   
    42    20    22 1   
    43    20    26 1   
    44    20    45 1   
    45    21    23 ar  
    46    21    46 1   
    47    22    47 1   
    48    22    48 1   
    49    23    24 ar  
    50    23    49 1   
    51    24    25 1   
    52    25    50 1   
    53    25    51 1   
    54    26    52 1   
    55    26    53 1   
@<TRIPOS>SUBSTRUCTURE
     1 59R         1 TEMP              0 ****  ****    0 ROOT
