@<TRIPOS>MOLECULE
59S
   81    82     1     0     0
SMALL
abcg2


@<TRIPOS>ATOM
      1 C26         21.6120    15.7290    30.4720 c          1 59S       0.607300
      2 C27         21.1780    16.1030    31.8330 ce         1 59S      -0.310200
      3 C28         21.0640    17.3910    32.1790 cf         1 59S      -0.060200
      4 C29         20.6320    17.9280    33.4600 ca         1 59S      -0.120800
      5 C30         20.3490    17.1320    34.5800 ca         1 59S      -0.046000
      6 C31         19.9330    17.6930    35.7660 ca         1 59S      -0.180000
      7 C32         19.7820    19.0810    35.8810 ca         1 59S       0.159100
      8 C35         20.0620    19.8890    34.7820 ca         1 59S      -0.180000
      9 C36         20.4830    19.3070    33.5950 ca         1 59S      -0.046000
     10 O37         21.9530    16.5490    29.6270 o          1 59S      -0.622100
     11 O33         19.3690    19.5330    37.0740 os         1 59S      -0.337100
     12 N25         21.6100    14.3990    30.2270 ns         1 59S      -0.493900
     13 C21         21.8910    13.8530    28.9190 c3         1 59S       0.044700
     14 C20         20.6310    13.9900    28.0650 c          1 59S       0.582100
     15 O38         19.6030    13.3890    28.3470 o          1 59S      -0.618100
     16 C22         22.3360    12.3900    29.0090 c3         1 59S      -0.065700
     17 C24         22.5740    11.8200    27.6140 c3         1 59S      -0.091600
     18 C23         23.5970    12.2570    29.8560 c3         1 59S      -0.091600
     19 N19         20.7200    14.8260    27.0230 ns         1 59S      -0.474900
     20 C14         19.5960    15.0940    26.1640 c3         1 59S       0.041700
     21 C13         19.3230    13.8780    25.2780 c          1 59S       0.591100
     22 O39         20.2330    13.2340    24.7860 o          1 59S      -0.602100
     23 C15         19.8640    16.3230    25.2970 c3         1 59S      -0.084400
     24 C16         20.1700    17.6060    26.0770 c3         1 59S      -0.061700
     25 C17         19.0800    17.9570    27.0840 c3         1 59S      -0.089100
     26 C18         20.3810    18.7530    25.0940 c3         1 59S      -0.089100
     27 C07         18.1140     8.7730    25.7510 c6         1 59S      -0.093400
     28 C03         17.5380    12.4830    24.3180 c3         1 59S      -0.018300
     29 C06         18.5280    10.1670    26.1860 c6         1 59S      -0.075400
     30 C10         16.2310    10.3490    27.2560 c          1 59S       0.569000
     31 C04         16.6400    11.5670    25.1450 c3         1 59S      -0.074400
     32 C02         16.8770    12.9730    23.0460 c          1 59S       0.562900
     33 C05         17.3020    11.0470    26.4300 c6         1 59S      -0.140700
     34 C08         17.3190     8.1180    26.8610 c6         1 59S       0.116000
     35 N12         18.0190    13.6160    25.0690 ns         1 59S      -0.497900
     36 N09         16.2960     9.0130    27.3710 ns         1 59S      -0.508900
     37 H33         20.9380    15.3030    32.5250 ha         1 59S       0.180000
     38 H12         21.3070    18.1350    31.4260 ha         1 59S       0.193000
     39 H35         20.4570    16.0560    34.5280 ha         1 59S       0.115000
     40 H36         19.7210    17.0640    36.6210 ha         1 59S       0.125000
     41 H37         18.8680    21.0660    38.2780 h1         1 59S       0.043367
     42 H39         18.4410    21.3330    36.5780 h1         1 59S       0.043367
     43 H38         20.1330    21.4730    37.1060 h1         1 59S       0.043367
     44 H40         19.9610    20.9650    34.8300 ha         1 59S       0.125000
     45 H41         20.6960    19.9500    32.7490 ha         1 59S       0.115000
     46 H44         21.2160    13.7780    30.9180 hn         1 59S       0.323500
     47 H7          22.7090    14.4310    28.4810 h1         1 59S       0.079700
     48 H8          21.5300    11.8190    29.4830 hc         1 59S       0.063700
     49 H9          22.9100    10.7850    27.6840 hc         1 59S       0.040033
     50 H10         21.6760    11.8270    26.9960 hc         1 59S       0.040033
     51 H11         23.3480    12.3830    27.0880 hc         1 59S       0.040033
     52 H30         23.4560    12.6150    30.8750 hc         1 59S       0.040033
     53 H31         23.9030    11.2110    29.9140 hc         1 59S       0.040033
     54 H32         24.4230    12.8190    29.4140 hc         1 59S       0.040033
     55 H43         21.6030    15.2660    26.8190 hn         1 59S       0.335500
     56 H25         18.7200    15.2860    26.7900 h1         1 59S       0.076700
     57 H2          18.9840    16.4890    24.6680 hc         1 59S       0.054200
     58 H3          20.6940    16.1080    24.6160 hc         1 59S       0.054200
     59 H26         21.1070    17.4700    26.6280 hc         1 59S       0.059700
     60 H4          18.9940    17.2170    27.8810 hc         1 59S       0.035200
     61 H5          19.2930    18.9160    27.5570 hc         1 59S       0.035200
     62 H6          18.1060    18.0370    26.5950 hc         1 59S       0.035200
     63 H27         20.6650    19.6680    25.6160 hc         1 59S       0.035200
     64 H28         21.1680    18.5260    24.3730 hc         1 59S       0.035200
     65 H29         19.4660    18.9600    24.5340 hc         1 59S       0.035200
     66 H21         17.5180     8.8160    24.8350 hc         1 59S       0.051700
     67 H22         18.9860     8.1570    25.5290 hc         1 59S       0.051700
     68 H15         18.4230    11.9350    23.9760 h1         1 59S       0.100700
     69 H19         19.1930    10.6240    25.4520 hc         1 59S       0.056700
     70 H20         19.1090    10.0990    27.1110 hc         1 59S       0.056700
     71 H16         15.7310    12.1120    25.4130 hc         1 59S       0.066700
     72 H17         16.3260    10.7320    24.5150 hc         1 59S       0.066700
     73 H14         17.3730    13.8560    22.6010 h4         1 59S      -0.004800
     74 H18         17.6050    11.9120    27.0260 hc         1 59S       0.095700
     75 H23         16.8320     7.2080    26.5080 h1         1 59S       0.037200
     76 H24         17.9920     7.8260    27.6740 h1         1 59S       0.037200
     77 H1          17.3320    14.1690    25.5610 hn         1 59S       0.322500
     78 H42         15.5810     8.5950    27.9490 hn         1 59S       0.312500
     79 O01         15.9190    12.4620    22.5310 o          1 59S      -0.503100
     80 C34         19.1990    20.9260    37.2520 c3         1 59S       0.147900
     81 O11         15.3250    10.9920    27.7750 o          1 59S      -0.578000
@<TRIPOS>BOND
     1     1     2 1   
     2     1    10 2   
     3     1    12 1   
     4     2     3 2   
     5     2    37 1   
     6     3     4 1   
     7     3    38 1   
     8     4     5 ar  
     9     4     9 ar  
    10     5     6 ar  
    11     5    39 1   
    12     6     7 ar  
    13     6    40 1   
    14     7     8 ar  
    15     7    11 1   
    16     8     9 ar  
    17     8    44 1   
    18     9    45 1   
    19    11    80 1   
    20    12    13 1   
    21    12    46 1   
    22    13    14 1   
    23    13    16 1   
    24    13    47 1   
    25    14    15 2   
    26    14    19 1   
    27    16    17 1   
    28    16    18 1   
    29    16    48 1   
    30    17    49 1   
    31    17    50 1   
    32    17    51 1   
    33    18    52 1   
    34    18    53 1   
    35    18    54 1   
    36    19    20 1   
    37    19    55 1   
    38    20    21 1   
    39    20    23 1   
    40    20    56 1   
    41    21    22 2   
    42    21    35 1   
    43    23    24 1   
    44    23    57 1   
    45    23    58 1   
    46    24    25 1   
    47    24    26 1   
    48    24    59 1   
    49    25    60 1   
    50    25    61 1   
    51    25    62 1   
    52    26    63 1   
    53    26    64 1   
    54    26    65 1   
    55    27    29 1   
    56    27    34 1   
    57    27    66 1   
    58    27    67 1   
    59    28    31 1   
    60    28    32 1   
    61    28    35 1   
    62    28    68 1   
    63    29    33 1   
    64    29    69 1   
    65    29    70 1   
    66    30    33 1   
    67    30    36 1   
    68    30    81 2   
    69    31    33 1   
    70    31    71 1   
    71    31    72 1   
    72    32    73 1   
    73    32    79 2   
    74    33    74 1   
    75    34    36 1   
    76    34    75 1   
    77    34    76 1   
    78    35    77 1   
    79    36    78 1   
    80    41    80 1   
    81    42    80 1   
    82    43    80 1   
@<TRIPOS>SUBSTRUCTURE
     1 59S         1 TEMP              0 ****  ****    0 ROOT
