@<TRIPOS>MOLECULE
59S
   81    82     1     0     0
SMALL
No Charge or Current Charge


@<TRIPOS>ATOM
      1 C26         21.6090    16.0980    31.2750 c          1 59S       0.607300
      2 C27         21.1370    16.8940    32.4370 ce         1 59S      -0.310200
      3 C28         21.9360    17.7040    33.1930 cf         1 59S      -0.060200
      4 C29         21.5870    18.5380    34.3630 ca         1 59S      -0.120800
      5 C30         20.2720    18.5910    34.8730 ca         1 59S      -0.046000
      6 C31         19.9740    19.3950    35.9870 ca         1 59S      -0.180000
      7 C32         20.9760    20.1530    36.6090 ca         1 59S       0.159100
      8 C35         22.2930    20.1050    36.1060 ca         1 59S      -0.180000
      9 C36         22.5910    19.3020    34.9910 ca         1 59S      -0.046000
     10 O37         22.7680    16.1040    30.8900 o          1 59S      -0.622100
     11 O33         20.6220    20.9220    37.6990 os         1 59S      -0.337100
     12 N25         20.6260    15.3570    30.6650 ns         1 59S      -0.493900
     13 C21         20.8230    14.4750    29.4900 c3         1 59S       0.044700
     14 C20         19.6510    14.7070    28.4900 c          1 59S       0.582100
     15 O38         18.5160    14.9930    28.8500 o          1 59S      -0.618100
     16 C22         20.9450    12.9780    29.9300 c3         1 59S      -0.065700
     17 C24         21.0680    12.0000    28.7330 c3         1 59S      -0.091600
     18 C23         22.1080    12.7420    30.9280 c3         1 59S      -0.091600
     19 N19         19.9840    14.5720    27.1580 ns         1 59S      -0.474900
     20 C14         19.0420    14.6730    26.0210 c3         1 59S       0.041700
     21 C13         19.2990    13.4960    25.0390 c          1 59S       0.591100
     22 O39         20.3530    12.8730    25.0080 o          1 59S      -0.602100
     23 C15         19.1830    16.0420    25.2990 c3         1 59S      -0.084400
     24 C16         18.7770    17.2930    26.1290 c3         1 59S      -0.061700
     25 C17         17.2670    17.3170    26.4660 c3         1 59S      -0.089100
     26 C18         19.1900    18.5930    25.4020 c3         1 59S      -0.089100
     27 C07         19.0510     8.1970    24.5570 c6         1 59S      -0.093400
     28 C03         18.1980    12.0250    23.2830 c3         1 59S      -0.018300
     29 C06         19.1570     9.5910    25.2070 c6         1 59S      -0.075400
     30 C10         16.6380     9.3620    25.7610 c          1 59S       0.569000
     31 C04         17.3240    10.8780    23.8680 c3         1 59S      -0.074400
     32 C02         17.7270    12.4970    21.8820 c          1 59S       0.562900
     33 C05         17.7690    10.2930    25.2580 c6         1 59S      -0.140700
     34 C08         18.0760     7.2980    25.3420 c6         1 59S       0.116000
     35 N12         18.2420    13.1850    24.2060 ns         1 59S      -0.497900
     36 N09         16.8700     8.0040    25.8020 ns         1 59S      -0.508900
     37 H33         20.0820    16.8010    32.6760 ha         1 59S       0.180000
     38 H12         22.9910    17.7600    32.9090 ha         1 59S       0.193000
     39 H35         19.4720    18.0160    34.4150 ha         1 59S       0.115000
     40 H36         18.9580    19.4290    36.3720 ha         1 59S       0.125000
     41 H37         21.0850    22.2610    39.2350 h1         1 59S       0.043367
     42 H39         22.0160    22.4880    37.7400 h1         1 59S       0.043367
     43 H38         22.3800    21.1180    38.8250 h1         1 59S       0.043367
     44 H40         23.0930    20.6790    36.5630 ha         1 59S       0.125000
     45 H41         23.6120    19.2760    34.6160 ha         1 59S       0.115000
     46 H44         19.6890    15.4470    31.0390 hn         1 59S       0.323500
     47 H7          21.7470    14.7710    28.9760 h1         1 59S       0.079700
     48 H8          20.0170    12.7160    30.4560 hc         1 59S       0.063700
     49 H9          21.2020    10.9700    29.0860 hc         1 59S       0.040033
     50 H10         20.1650    12.0110    28.1120 hc         1 59S       0.040033
     51 H11         21.9290    12.2560    28.1030 hc         1 59S       0.040033
     52 H30         21.9590    13.3090    31.8540 hc         1 59S       0.040033
     53 H31         22.1760    11.6830    31.2020 hc         1 59S       0.040033
     54 H32         23.0660    13.0440    30.4880 hc         1 59S       0.040033
     55 H43         20.9400    14.3020    26.9530 hn         1 59S       0.335500
     56 H25         18.0150    14.5520    26.3880 h1         1 59S       0.076700
     57 H2          18.5820    16.0260    24.3810 hc         1 59S       0.054200
     58 H3          20.2270    16.1500    24.9750 hc         1 59S       0.054200
     59 H26         19.3300    17.2700    27.0760 hc         1 59S       0.059700
     60 H4          16.9760    16.4470    27.0640 hc         1 59S       0.035200
     61 H5          17.0160    18.2140    27.0460 hc         1 59S       0.035200
     62 H6          16.6620    17.3230    25.5520 hc         1 59S       0.035200
     63 H27         18.9420    19.4730    26.0090 hc         1 59S       0.035200
     64 H28         20.2710    18.6080    25.2160 hc         1 59S       0.035200
     65 H29         18.6740    18.6850    24.4390 hc         1 59S       0.035200
     66 H21         18.7120     8.2910    23.5170 hc         1 59S       0.051700
     67 H22         20.0400     7.7210    24.5140 hc         1 59S       0.051700
     68 H15         19.2180    11.6520    23.1260 h1         1 59S       0.100700
     69 H19         19.8980    10.2010    24.6770 hc         1 59S       0.056700
     70 H20         19.5410     9.4790    26.2310 hc         1 59S       0.056700
     71 H16         16.2990    11.2600    23.9580 hc         1 59S       0.066700
     72 H17         17.2660    10.0700    23.1280 hc         1 59S       0.066700
     73 H14         18.4860    13.0640    21.2990 h4         1 59S      -0.004800
     74 H18         17.7930    11.1470    25.9470 hc         1 59S       0.095700
     75 H23         17.7770     6.4380    24.7250 h1         1 59S       0.037200
     76 H24         18.5880     6.9060    26.2320 h1         1 59S       0.037200
     77 H1          17.4080    13.7570    24.3020 hn         1 59S       0.322500
     78 H42         16.1080     7.4470    26.1720 hn         1 59S       0.312500
     79 O01         16.6120    12.2800    21.4170 o          1 59S      -0.503100
     80 C34         21.5750    21.7350    38.4060 c3         1 59S       0.147900
     81 O11         15.5830     9.8070    26.1840 o          1 59S      -0.578000
@<TRIPOS>BOND
     1     1     2 1   
     2     1    10 2   
     3     1    12 1   
     4     2     3 2   
     5     2    37 1   
     6     3     4 1   
     7     3    38 1   
     8     4     5 ar  
     9     4     9 ar  
    10     5     6 ar  
    11     5    39 1   
    12     6     7 ar  
    13     6    40 1   
    14     7     8 ar  
    15     7    11 1   
    16     8     9 ar  
    17     8    44 1   
    18     9    45 1   
    19    11    80 1   
    20    12    13 1   
    21    12    46 1   
    22    13    14 1   
    23    13    16 1   
    24    13    47 1   
    25    14    15 2   
    26    14    19 1   
    27    16    17 1   
    28    16    18 1   
    29    16    48 1   
    30    17    49 1   
    31    17    50 1   
    32    17    51 1   
    33    18    52 1   
    34    18    53 1   
    35    18    54 1   
    36    19    20 1   
    37    19    55 1   
    38    20    21 1   
    39    20    23 1   
    40    20    56 1   
    41    21    22 2   
    42    21    35 1   
    43    23    24 1   
    44    23    57 1   
    45    23    58 1   
    46    24    25 1   
    47    24    26 1   
    48    24    59 1   
    49    25    60 1   
    50    25    61 1   
    51    25    62 1   
    52    26    63 1   
    53    26    64 1   
    54    26    65 1   
    55    27    29 1   
    56    27    34 1   
    57    27    66 1   
    58    27    67 1   
    59    28    31 1   
    60    28    32 1   
    61    28    35 1   
    62    28    68 1   
    63    29    33 1   
    64    29    69 1   
    65    29    70 1   
    66    30    33 1   
    67    30    36 1   
    68    30    81 2   
    69    31    33 1   
    70    31    71 1   
    71    31    72 1   
    72    32    73 1   
    73    32    79 2   
    74    33    74 1   
    75    34    36 1   
    76    34    75 1   
    77    34    76 1   
    78    35    77 1   
    79    36    78 1   
    80    41    80 1   
    81    42    80 1   
    82    43    80 1   
@<TRIPOS>SUBSTRUCTURE
     1 59S         1 TEMP              0 ****  ****    0 ROOT
