@<TRIPOS>MOLECULE
59T
   60    64     1     0     0
SMALL
bcc


@<TRIPOS>ATOM
      1 N3           5.9990     1.0480    -0.7610 nb         1 59T      -0.684000
      2 C4           5.6010    -0.0460    -0.1140 cp         1 59T       0.480800
      3 C5           6.5100    -0.9210     0.4770 ca         1 59T      -0.239300
      4 C6           7.8620    -0.6430     0.3630 ca         1 59T      -0.089000
      5 C7           8.2670     0.4900    -0.3200 ca         1 59T      -0.247300
      6 C8           4.1380    -0.2700    -0.0490 cp         1 59T      -0.134500
      7 C10          2.2380    -1.7160     0.2780 ca         1 59T       0.031400
      8 C13          3.2520     0.7840    -0.2770 ca         1 59T      -0.089000
      9 C15         -0.8760    -0.1240     1.0730 c          1 59T       0.728700
     10 C20         -4.8190    -2.0570    -0.5790 ca         1 59T       0.953900
     11 C22         -2.9010    -2.6480    -1.6070 ca         1 59T       0.532200
     12 C24         -0.7570    -1.6610    -0.8190 cc         1 59T       0.027800
     13 C26         -6.9390    -3.0720    -1.2850 c3         1 59T       0.231100
     14 C28         -3.3700     1.9810     1.2920 c6         1 59T       0.313900
     15 C2           7.2930     1.3240    -0.8670 ca         1 59T       0.429600
     16 C9           3.6100    -1.5270     0.2280 ca         1 59T      -0.114000
     17 C11          1.3410    -0.6750     0.0510 ca         1 59T      -0.008800
     18 C12          1.8880     0.5800    -0.2170 ca         1 59T      -0.101000
     19 C14         -0.1210    -0.8580     0.0610 cd         1 59T      -0.169400
     20 N17         -2.2670    -0.2200     1.0150 n          1 59T      -0.427300
     21 C18         -2.9170    -1.0790     0.1670 ca         1 59T       0.657200
     22 N19         -4.2220    -1.2140     0.2670 nb         1 59T      -0.834000
     23 N21         -4.2040    -2.7840    -1.5340 nb         1 59T      -0.788000
     24 C23         -2.1640    -1.8090    -0.7730 ca         1 59T      -0.436400
     25 N25         -6.1430    -2.1880    -0.4700 nu         1 59T      -0.858900
     26 C27         -3.0450     0.6300     1.9070 c3         1 59T       0.106000
     27 O30         -2.1870     2.6770     1.0470 os         1 59T      -0.404100
     28 C31         -2.4180     3.9590     0.4950 c6         1 59T       0.113900
     29 C32         -3.2290     3.8620    -0.7890 c6         1 59T       0.089500
     30 C34         -4.4600     3.0100    -0.4920 c6         1 59T       0.113900
     31 O35         -4.0960     1.7850     0.1180 os         1 59T      -0.404100
     32 N36         -3.5310     5.1930    -1.2760 n8         1 59T      -0.881800
     33 CL1          1.6570    -3.3070     0.6530 cl         1 59T      -0.117400
     34 H1           6.1830    -1.7940     1.0230 ha         1 59T       0.144000
     35 H2           8.5920    -1.3060     0.8080 ha         1 59T       0.136000
     36 H3           9.3160     0.7320    -0.4260 ha         1 59T       0.140000
     37 H4           3.6380     1.7680    -0.5000 ha         1 59T       0.157000
     38 H5          -2.3860    -3.2320    -2.3660 h4         1 59T       0.024100
     39 H6          -0.1990    -2.2050    -1.5730 ha         1 59T       0.143000
     40 H7          -6.8150    -2.8620    -2.3470 h1         1 59T       0.044033
     41 H8          -6.6940    -4.1210    -1.1140 h1         1 59T       0.044033
     42 H9          -7.9830    -2.9180    -1.0260 h1         1 59T       0.044033
     43 H10         -3.9860     2.5440     2.0200 h2         1 59T       0.025700
     44 H11          7.5910     3.4420    -0.9070 hc         1 59T       0.051367
     45 H12          8.6880     2.5510    -1.9550 hc         1 59T       0.051367
     46 H13          6.9940     2.7730    -2.4190 hc         1 59T       0.051367
     47 H14          4.2570    -2.3780     0.3920 ha         1 59T       0.143000
     48 H15          1.2190     1.4120    -0.3980 ha         1 59T       0.147000
     49 H16         -6.5950    -1.6550     0.2530 hn         1 59T       0.454800
     50 H17         -2.4910     0.7790     2.8300 h1         1 59T       0.090200
     51 H18         -3.9740     0.1220     2.1530 h1         1 59T       0.090200
     52 H19         -2.9540     4.5940     1.2180 h1         1 59T       0.050200
     53 H20         -1.4440     4.4140     0.3100 h1         1 59T       0.050200
     54 H21         -2.6230     3.3520    -1.5440 h1         1 59T       0.085700
     55 H22         -5.1380     3.5760     0.1670 h1         1 59T       0.050200
     56 H23         -5.0060     2.7680    -1.4050 h1         1 59T       0.050200
     57 H24         -3.9770     5.1380    -2.1820 hn         1 59T       0.343300
     58 H25         -4.1960     5.6470    -0.6600 hn         1 59T       0.343300
     59 C1           7.6650     2.5860    -1.5830 c3         1 59T      -0.145400
     60 O16         -0.3350     0.5370     1.9400 o          1 59T      -0.590500
@<TRIPOS>BOND
     1     1     2 ar  
     2     1    15 ar  
     3     2     3 ar  
     4     2     6 1   
     5     3     4 ar  
     6     3    34 1   
     7     4     5 ar  
     8     4    35 1   
     9     5    15 ar  
    10     5    36 1   
    11     6     8 ar  
    12     6    16 ar  
    13     7    16 ar  
    14     7    17 ar  
    15     7    33 1   
    16     8    18 ar  
    17     8    37 1   
    18     9    19 1   
    19     9    20 1   
    20     9    60 2   
    21    10    22 ar  
    22    10    23 ar  
    23    10    25 1   
    24    11    23 ar  
    25    11    24 ar  
    26    11    38 1   
    27    12    19 2   
    28    12    24 1   
    29    12    39 1   
    30    13    25 1   
    31    13    40 1   
    32    13    41 1   
    33    13    42 1   
    34    14    26 1   
    35    14    27 1   
    36    14    31 1   
    37    14    43 1   
    38    15    59 1   
    39    16    47 1   
    40    17    18 ar  
    41    17    19 1   
    42    18    48 1   
    43    20    21 1   
    44    20    26 1   
    45    21    22 ar  
    46    21    24 ar  
    47    25    49 1   
    48    26    50 1   
    49    26    51 1   
    50    27    28 1   
    51    28    29 1   
    52    28    52 1   
    53    28    53 1   
    54    29    30 1   
    55    29    32 1   
    56    29    54 1   
    57    30    31 1   
    58    30    55 1   
    59    30    56 1   
    60    32    57 1   
    61    32    58 1   
    62    44    59 1   
    63    45    59 1   
    64    46    59 1   
@<TRIPOS>SUBSTRUCTURE
     1 59T         1 TEMP              0 ****  ****    0 ROOT
