@<TRIPOS>MOLECULE
59T
   60    64     1     0     0
SMALL
No Charge or Current Charge


@<TRIPOS>ATOM
      1 N3           6.2930     1.0140    -0.6090 nb         1 59T      -0.684000
      2 C4           5.8320    -0.1750    -0.1530 cp         1 59T       0.415500
      3 C5           6.7310    -1.1900     0.2660 ca         1 59T      -0.156000
      4 C6           8.1160    -0.9750     0.1970 ca         1 59T      -0.071000
      5 C7           8.5680     0.2600    -0.2910 ca         1 59T      -0.164000
      6 C8           4.3350    -0.3460    -0.1030 cp         1 59T      -0.134500
      7 C10          2.3330    -1.7930    -0.0610 ca         1 59T       0.123000
      8 C13          3.4650     0.7730    -0.0510 ca         1 59T      -0.071000
      9 C15         -0.7840     0.0490     1.0070 c          1 59T       0.586200
     10 C20         -4.7450    -2.0880    -0.5650 ca         1 59T       0.427900
     11 C22         -2.7820    -2.7400    -1.5250 ca         1 59T       0.203900
     12 C24         -0.6480    -1.6780    -0.8200 cc         1 59T      -0.022200
     13 C26         -7.0080    -3.1160    -1.1970 c3         1 59T       0.231100
     14 C28         -3.5100     2.1490     1.3220 c6         1 59T       0.360300
     15 C2           7.6250     1.2260    -0.6820 ca         1 59T       0.364300
     16 C9           3.7290    -1.6290    -0.1050 ca         1 59T      -0.096000
     17 C11          1.4740    -0.6630    -0.0120 ca         1 59T      -0.008800
     18 C12          2.0710     0.6160    -0.0010 ca         1 59T      -0.083000
     19 C14         -0.0110    -0.7620     0.0020 cd         1 59T      -0.169400
     20 N17         -2.1910    -0.0740     0.9890 n          1 59T      -0.360300
     21 C18         -2.8480    -1.0210     0.1450 ca         1 59T       0.328900
     22 N19         -4.1850    -1.1730     0.2360 nb         1 59T      -0.308000
     23 N21         -4.1160    -2.8830    -1.4460 nb         1 59T      -0.262000
     24 C23         -2.0920    -1.8080    -0.7290 ca         1 59T      -0.305800
     25 N25         -6.1190    -2.2090    -0.4460 nu         1 59T      -0.914100
     26 C27         -2.9950     0.7970     1.9120 c3         1 59T       0.106000
     27 O30         -2.3860     2.8840     0.7960 os         1 59T      -0.450500
     28 C31         -2.7540     4.1650     0.2390 c6         1 59T       0.137100
     29 C32         -3.7920     3.9710    -0.9050 c6         1 59T       0.089500
     30 C34         -4.9500     3.0720    -0.3750 c6         1 59T       0.137100
     31 O35         -4.4100     1.8780     0.2290 os         1 59T      -0.450500
     32 N36         -4.2830     5.2760    -1.4450 n8         1 59T      -0.992200
     33 Cl1          1.7340    -3.4530     0.0550 cl         1 59T      -0.209000
     34 H1           6.3600    -2.1310     0.6560 ha         1 59T       0.126000
     35 H2           8.8190    -1.7420     0.5160 ha         1 59T       0.118000
     36 H3           9.6320     0.4700    -0.3590 ha         1 59T       0.122000
     37 H4           3.8730     1.7820    -0.0460 ha         1 59T       0.139000
     38 H5          -2.2600    -3.3840    -2.2310 h4         1 59T       0.024100
     39 H6          -0.0820    -2.2510    -1.5510 ha         1 59T       0.193000
     40 H7          -6.9440    -2.9140    -2.2750 h1         1 59T       0.044033
     41 H8          -6.7270    -4.1640    -1.0220 h1         1 59T       0.044033
     42 H9          -8.0510    -2.9810    -0.8820 h1         1 59T       0.044033
     43 H10         -4.0200     2.7290     2.1060 h2         1 59T       0.025700
     44 H11          7.9900     3.3400    -0.4170 hc         1 59T       0.051367
     45 H12          9.0960     2.5590    -1.5590 hc         1 59T       0.051367
     46 H13          7.4300     2.9060    -2.0420 hc         1 59T       0.051367
     47 H14          4.3440    -2.5230    -0.1440 ha         1 59T       0.125000
     48 H15          1.4490     1.5080     0.0140 ha         1 59T       0.129000
     49 H16         -6.5500    -1.5680     0.2220 hn         1 59T       0.510000
     50 H17         -2.4080     1.0360     2.8070 h1         1 59T       0.090200
     51 H18         -3.8650     0.2440     2.2840 h1         1 59T       0.090200
     52 H19         -3.1750     4.7940     1.0370 h1         1 59T       0.050200
     53 H20         -1.8510     4.6590    -0.1480 h1         1 59T       0.050200
     54 H21         -3.2920     3.4350    -1.7280 h1         1 59T       0.085700
     55 H22         -5.5450     3.6130     0.3750 h1         1 59T       0.050200
     56 H23         -5.6170     2.7830    -1.2000 h1         1 59T       0.050200
     57 H24         -4.9580     5.1010    -2.2020 hn         1 59T       0.398500
     58 H25         -4.8450     5.7550    -0.7300 hn         1 59T       0.398500
     59 C1           8.0590     2.5820    -1.2040 c3         1 59T      -0.145400
     60 O16         -0.2260     0.7760     1.8200 o          1 59T      -0.515000
@<TRIPOS>BOND
     1     1     2 ar  
     2     1    15 ar  
     3     2     3 ar  
     4     2     6 1   
     5     3     4 ar  
     6     3    34 1   
     7     4     5 ar  
     8     4    35 1   
     9     5    15 ar  
    10     5    36 1   
    11     6     8 ar  
    12     6    16 ar  
    13     7    16 ar  
    14     7    17 ar  
    15     7    33 1   
    16     8    18 ar  
    17     8    37 1   
    18     9    19 1   
    19     9    20 1   
    20     9    60 2   
    21    10    22 ar  
    22    10    23 ar  
    23    10    25 1   
    24    11    23 ar  
    25    11    24 ar  
    26    11    38 1   
    27    12    19 2   
    28    12    24 1   
    29    12    39 1   
    30    13    25 1   
    31    13    40 1   
    32    13    41 1   
    33    13    42 1   
    34    14    26 1   
    35    14    27 1   
    36    14    31 1   
    37    14    43 1   
    38    15    59 1   
    39    16    47 1   
    40    17    18 ar  
    41    17    19 1   
    42    18    48 1   
    43    20    21 1   
    44    20    26 1   
    45    21    22 ar  
    46    21    24 ar  
    47    25    49 1   
    48    26    50 1   
    49    26    51 1   
    50    27    28 1   
    51    28    29 1   
    52    28    52 1   
    53    28    53 1   
    54    29    30 1   
    55    29    32 1   
    56    29    54 1   
    57    30    31 1   
    58    30    55 1   
    59    30    56 1   
    60    32    57 1   
    61    32    58 1   
    62    44    59 1   
    63    45    59 1   
    64    46    59 1   
@<TRIPOS>SUBSTRUCTURE
     1 59T         1 TEMP              0 ****  ****    0 ROOT
