@<TRIPOS>MOLECULE
59U
   69    73     1     0     0
SMALL
abcg2


@<TRIPOS>ATOM
      1 C10         10.4150    34.6080   -12.9470 ca         1 59U      -0.006800
      2 C13          7.7790    34.8150   -11.9370 cp         1 59U      -0.135500
      3 C15          9.4440    35.3840   -13.5850 ca         1 59U       0.143000
      4 C17          6.0480    34.6390   -10.1120 ca         1 59U       0.287900
      5 C20          3.1740    36.0040   -12.8200 c3         1 59U      -0.141400
      6 C21         18.2270    33.8910   -16.0340 c3         1 59U       0.236800
      7 C22         18.0400    34.8770   -17.1880 c3         1 59U      -0.102400
      8 C24         19.8850    34.0530   -18.7470 c6         1 59U      -0.071400
      9 C26         18.6620    34.9840   -20.9960 c6         1 59U       0.167800
     10 N02         16.5350    35.2500   -13.0680 nb         1 59U      -0.263000
     11 C01         16.6460    34.5990   -14.2610 ca         1 59U       0.422900
     12 N03         15.6320    34.0840   -14.9670 nb         1 59U      -0.306000
     13 C02         14.4090    34.2200   -14.4610 ca         1 59U       0.313900
     14 C03         14.1750    34.8760   -13.2340 ca         1 59U      -0.310800
     15 C04         15.3160    35.3730   -12.5880 ca         1 59U       0.206900
     16 N04         13.3460    33.7040   -15.1600 n          1 59U      -0.366300
     17 C05         12.0280    33.7640   -14.6880 c          1 59U       0.576200
     18 C06         11.8030    34.4930   -13.4450 cc         1 59U      -0.168400
     19 C07         12.8510    35.0000   -12.7480 cd         1 59U      -0.026200
     20 C09         13.8950    31.5210   -16.2140 c3         1 59U      -0.107100
     21 O           11.1260    33.2060   -15.3130 o          1 59U      -0.527000
     22 C11         10.0270    33.9430   -11.7810 ca         1 59U      -0.099000
     23 C12          8.7380    34.0400   -11.2800 ca         1 59U      -0.095000
     24 C14          8.1520    35.4910   -13.1020 ca         1 59U      -0.065000
     25 CL           9.8660    36.3030   -15.0150 cl         1 59U      -0.200000
     26 C16          6.3930    34.9420   -11.4350 cp         1 59U       0.367500
     27 N05          4.7990    34.7520    -9.6690 nb         1 59U      -0.626000
     28 C18          3.8810    35.1790   -10.5350 ca         1 59U       0.280900
     29 C19          4.2040    35.5070   -11.8530 ca         1 59U       0.316300
     30 N06          5.4590    35.3800   -12.2870 nb         1 59U      -0.650000
     31 C23         18.3860    34.2890   -18.5560 c6         1 59U      -0.051700
     32 C25         20.1740    33.3440   -20.0790 c6         1 59U       0.167800
     33 N           19.1310    33.6050   -21.0770 n3         1 59U      -0.724600
     34 C27         17.8840    35.2040   -19.6890 c6         1 59U      -0.071400
     35 C           19.5830    33.2430   -22.4070 c3         1 59U       0.155100
     36 H1           6.7930    34.3150    -9.3970 h4         1 59U       0.030100
     37 H2           3.1190    35.3420   -13.6860 hc         1 59U       0.055700
     38 H3           2.1910    36.0590   -12.3550 hc         1 59U       0.055700
     39 H4           3.4470    36.9980   -13.1820 hc         1 59U       0.055700
     40 H5          17.6050    33.0110   -16.1960 h1         1 59U       0.059700
     41 H6          19.2630    33.5580   -15.9730 h1         1 59U       0.059700
     42 H7          18.6550    35.7650   -17.0050 hc         1 59U       0.050200
     43 H8          16.9980    35.2070   -17.1910 hc         1 59U       0.050200
     44 H10         20.3880    35.0250   -18.7230 hc         1 59U       0.040450
     45 H11         19.5090    35.6910   -21.0650 h1         1 59U       0.031450
     46 H12         18.0210    35.1820   -21.8560 h1         1 59U       0.031450
     47 H14         15.2040    35.8920   -11.6390 h4         1 59U       0.025100
     48 H15         12.6850    35.5200   -11.8110 ha         1 59U       0.191000
     49 H18         14.0620    31.0360   -17.1770 hc         1 59U       0.045367
     50 H19         14.7930    31.3990   -15.6070 hc         1 59U       0.045367
     51 H20         13.0650    31.0200   -15.7150 hc         1 59U       0.045367
     52 H21         10.7550    33.3250   -11.2710 ha         1 59U       0.120000
     53 H22          8.4830    33.4870   -10.3870 ha         1 59U       0.117000
     54 H23          7.4310    36.1080   -13.6170 ha         1 59U       0.150000
     55 H24          2.8620    35.2700   -10.1780 h4         1 59U       0.030100
     56 H25         17.8780    33.3230   -18.6470 hc         1 59U       0.063700
     57 H26         20.2340    32.2620   -19.9310 h1         1 59U       0.031450
     58 H27         21.1590    33.6710   -20.4560 h1         1 59U       0.031450
     59 H29         17.9880    36.2500   -19.3860 hc         1 59U       0.040450
     60 H30         16.8190    35.0230   -19.8500 hc         1 59U       0.040450
     61 H31         19.8910    32.1950   -22.4200 h1         1 59U       0.030367
     62 H32         18.7720    33.3740   -23.1270 h1         1 59U       0.030367
     63 H33         20.4430    33.8500   -22.7410 h1         1 59U       0.030367
     64 C08         13.5870    32.9960   -16.4300 c3         1 59U       0.098000
     65 N01         17.8940    34.4620   -14.7390 nu         1 59U      -0.911100
     66 H9          20.3060    33.4640   -17.9320 hc         1 59U       0.040450
     67 H13         18.6200    34.9150   -14.2080 hn         1 59U       0.509000
     68 H16         14.4150    33.4960   -16.9230 h1         1 59U       0.072700
     69 H17         12.6890    33.1200   -17.0280 h1         1 59U       0.072700
@<TRIPOS>BOND
     1     1     3 ar  
     2     1    18 1   
     3     1    22 ar  
     4     2    23 ar  
     5     2    24 ar  
     6     2    26 1   
     7     3    24 ar  
     8     3    25 1   
     9     4    26 ar  
    10     4    27 ar  
    11     4    36 1   
    12     5    29 1   
    13     5    37 1   
    14     5    38 1   
    15     5    39 1   
    16     6     7 1   
    17     6    40 1   
    18     6    41 1   
    19     6    65 1   
    20     7    31 1   
    21     7    42 1   
    22     7    43 1   
    23     8    31 1   
    24     8    32 1   
    25     8    44 1   
    26     8    66 1   
    27     9    33 1   
    28     9    34 1   
    29     9    45 1   
    30     9    46 1   
    31    10    11 ar  
    32    10    15 ar  
    33    11    12 ar  
    34    11    65 1   
    35    12    13 ar  
    36    13    14 ar  
    37    13    16 1   
    38    14    15 ar  
    39    14    19 1   
    40    15    47 1   
    41    16    17 1   
    42    16    64 1   
    43    17    18 1   
    44    17    21 2   
    45    18    19 2   
    46    19    48 1   
    47    20    49 1   
    48    20    50 1   
    49    20    51 1   
    50    20    64 1   
    51    22    23 ar  
    52    22    52 1   
    53    23    53 1   
    54    24    54 1   
    55    26    30 ar  
    56    27    28 ar  
    57    28    29 ar  
    58    28    55 1   
    59    29    30 ar  
    60    31    34 1   
    61    31    56 1   
    62    32    33 1   
    63    32    57 1   
    64    32    58 1   
    65    33    35 1   
    66    34    59 1   
    67    34    60 1   
    68    35    61 1   
    69    35    62 1   
    70    35    63 1   
    71    64    68 1   
    72    64    69 1   
    73    65    67 1   
@<TRIPOS>SUBSTRUCTURE
     1 59U         1 TEMP              0 ****  ****    0 ROOT
