@<TRIPOS>MOLECULE
59U
   69    73     1     0     0
SMALL
No Charge or Current Charge


@<TRIPOS>ATOM
      1 C10         10.3380    34.5230   -13.0580 ca         1 59U      -0.006800
      2 C13          7.7130    34.8030   -11.9520 cp         1 59U      -0.135500
      3 C15          9.4020    35.3910   -13.6550 ca         1 59U       0.143000
      4 C17          5.9730    34.5150   -10.0510 ca         1 59U       0.287900
      5 C20          3.1190    36.3520   -12.5600 c3         1 59U      -0.141400
      6 C21         18.3750    33.9640   -15.9300 c3         1 59U       0.236800
      7 C22         18.0720    34.8950   -17.1260 c3         1 59U      -0.102400
      8 C24         19.9910    34.0290   -18.6450 c6         1 59U      -0.071400
      9 C26         18.3750    34.6760   -21.0770 c6         1 59U       0.167800
     10 N02         16.4070    35.3100   -13.0720 nb         1 59U      -0.263000
     11 C01         16.5780    34.6440   -14.2240 ca         1 59U       0.422900
     12 N03         15.6240    34.0660   -14.9720 nb         1 59U      -0.306000
     13 C02         14.3570    34.1680   -14.5280 ca         1 59U       0.313900
     14 C03         14.0690    34.8420   -13.3340 ca         1 59U      -0.310800
     15 C04         15.1420    35.4090   -12.6250 ca         1 59U       0.206900
     16 N04         13.2970    33.5690   -15.2930 n          1 59U      -0.366300
     17 C05         11.9440    33.6300   -14.8750 c          1 59U       0.576200
     18 C06         11.6820    34.3620   -13.6070 cc         1 59U      -0.168400
     19 C07         12.6920    34.9380   -12.8700 cd         1 59U      -0.026200
     20 C09         14.0800    31.4130   -16.3550 c3         1 59U      -0.107100
     21 O           11.0430    33.1020   -15.5150 o          1 59U      -0.527000
     22 C11          9.9640    33.7990   -11.9130 ca         1 59U      -0.099000
     23 C12          8.6750    33.9330   -11.3690 ca         1 59U      -0.095000
     24 C14          8.1140    35.5260   -13.1110 ca         1 59U      -0.065000
     25 Cl           9.8310    36.3460   -15.0760 cl         1 59U      -0.200000
     26 C16          6.3260    34.9540   -11.3740 cp         1 59U       0.367500
     27 N05          4.7220    34.6520    -9.5250 nb         1 59U      -0.626000
     28 C18          3.8110    35.2430   -10.3450 ca         1 59U       0.280900
     29 C19          4.1430    35.6900   -11.6550 ca         1 59U       0.316300
     30 N06          5.3930    35.5500   -12.1690 nb         1 59U      -0.650000
     31 C23         18.4650    34.3180   -18.5190 c6         1 59U      -0.051700
     32 C25         20.4500    33.7680   -20.1100 c6         1 59U       0.167800
     33 N           19.3050    33.5110   -21.0220 n3         1 59U      -0.724600
     34 C27         18.0200    35.2520   -19.6740 c6         1 59U      -0.071400
     35 C           19.7260    33.0600   -22.3660 c3         1 59U       0.155100
     36 H1           6.7080    34.0560    -9.3940 h4         1 59U       0.030100
     37 H2           2.9900    35.7820   -13.4870 hc         1 59U       0.055700
     38 H3           2.1400    36.4240   -12.0730 hc         1 59U       0.055700
     39 H4           3.4340    37.3670   -12.8290 hc         1 59U       0.055700
     40 H5          17.9150    32.9790   -16.0990 h1         1 59U       0.059700
     41 H6          19.4620    33.8110   -15.8680 h1         1 59U       0.059700
     42 H7          18.5820    35.8520   -16.9620 hc         1 59U       0.050200
     43 H8          16.9990    35.1200   -17.1290 hc         1 59U       0.050200
     44 H10         20.5720    34.8680   -18.2380 hc         1 59U       0.040450
     45 H11         18.8080    35.4850   -21.6850 h1         1 59U       0.031450
     46 H12         17.4430    34.3720   -21.5760 h1         1 59U       0.031450
     47 H14         14.9900    35.9470   -11.6910 h4         1 59U       0.025100
     48 H15         12.4590    35.4680   -11.9480 ha         1 59U       0.191000
     49 H18         14.2990    30.9380   -17.3190 hc         1 59U       0.045367
     50 H19         14.9880    31.3770   -15.7410 hc         1 59U       0.045367
     51 H20         13.2990    30.8300   -15.8530 hc         1 59U       0.045367
     52 H21         10.6750    33.1210   -11.4460 ha         1 59U       0.120000
     53 H22          8.4290    33.3400   -10.4930 ha         1 59U       0.117000
     54 H23          7.4230    36.2110   -13.5960 ha         1 59U       0.150000
     55 H24          2.8040    35.3640    -9.9480 h4         1 59U       0.030100
     56 H25         17.9210    33.3680   -18.6250 hc         1 59U       0.063700
     57 H26         21.1480    32.9180   -20.1150 h1         1 59U       0.031450
     58 H27         21.0150    34.6430   -20.4650 h1         1 59U       0.031450
     59 H29         18.5050    36.2310   -19.5570 hc         1 59U       0.040450
     60 H30         16.9380    35.4390   -19.6200 hc         1 59U       0.040450
     61 H31         20.3470    32.1570   -22.2950 h1         1 59U       0.030367
     62 H32         18.8520    32.8210   -22.9860 h1         1 59U       0.030367
     63 H33         20.3080    33.8390   -22.8760 h1         1 59U       0.030367
     64 C08         13.6160    32.8660   -16.5690 c3         1 59U       0.098000
     65 N01         17.8890    34.5450   -14.6640 nu         1 59U      -0.911100
     66 H9          20.2470    33.1550   -18.0320 hc         1 59U       0.040450
     67 H13         18.5780    34.9960   -14.0600 hn         1 59U       0.509000
     68 H16         14.3970    33.4180   -17.1070 h1         1 59U       0.072700
     69 H17         12.7400    32.8660   -17.2300 h1         1 59U       0.072700
@<TRIPOS>BOND
     1     1     3 ar  
     2     1    18 1   
     3     1    22 ar  
     4     2    23 ar  
     5     2    24 ar  
     6     2    26 1   
     7     3    24 ar  
     8     3    25 1   
     9     4    26 ar  
    10     4    27 ar  
    11     4    36 1   
    12     5    29 1   
    13     5    37 1   
    14     5    38 1   
    15     5    39 1   
    16     6     7 1   
    17     6    40 1   
    18     6    41 1   
    19     6    65 1   
    20     7    31 1   
    21     7    42 1   
    22     7    43 1   
    23     8    31 1   
    24     8    32 1   
    25     8    44 1   
    26     8    66 1   
    27     9    33 1   
    28     9    34 1   
    29     9    45 1   
    30     9    46 1   
    31    10    11 ar  
    32    10    15 ar  
    33    11    12 ar  
    34    11    65 1   
    35    12    13 ar  
    36    13    14 ar  
    37    13    16 1   
    38    14    15 ar  
    39    14    19 1   
    40    15    47 1   
    41    16    17 1   
    42    16    64 1   
    43    17    18 1   
    44    17    21 2   
    45    18    19 2   
    46    19    48 1   
    47    20    49 1   
    48    20    50 1   
    49    20    51 1   
    50    20    64 1   
    51    22    23 ar  
    52    22    52 1   
    53    23    53 1   
    54    24    54 1   
    55    26    30 ar  
    56    27    28 ar  
    57    28    29 ar  
    58    28    55 1   
    59    29    30 ar  
    60    31    34 1   
    61    31    56 1   
    62    32    33 1   
    63    32    57 1   
    64    32    58 1   
    65    33    35 1   
    66    34    59 1   
    67    34    60 1   
    68    35    61 1   
    69    35    62 1   
    70    35    63 1   
    71    64    68 1   
    72    64    69 1   
    73    65    67 1   
@<TRIPOS>SUBSTRUCTURE
     1 59U         1 TEMP              0 ****  ****    0 ROOT
