@<TRIPOS>MOLECULE
59V
   41    44     1     0     0
SMALL
No Charge or Current Charge


@<TRIPOS>ATOM
      1 C4          -3.7380     2.0300     1.0700 ca         1 59V       0.153300
      2 C5          -2.9420     1.4780     0.0920 ca         1 59V      -0.217800
      3 C6          -1.5860     1.8460     0.0310 ca         1 59V       0.422900
      4 N1          -1.0950     2.7420     0.9140 nb         1 59V      -0.283000
      5 N3          -3.2700     2.9180     1.9660 nb         1 59V      -0.170000
      6 FAA         -5.0760    -2.4870    -0.5920 f          1 59V      -0.112333
      7 CBB         -6.2370    -1.7970    -0.5030 c3         1 59V       0.301000
      8 FAB         -7.1850    -2.4920    -1.1710 f          1 59V      -0.112333
      9 FAC         -6.5980    -1.7500     0.8000 f          1 59V      -0.112333
     10 CAT         -5.0330     0.4580    -0.4080 cc         1 59V      -0.107600
     11 SAS         -5.4300     1.4670     1.0160 ss         1 59V      -0.055900
     12 CAH         -3.7040     0.5880    -0.7560 cd         1 59V      -0.120200
     13 C2          -1.9600     3.2320     1.8360 ca         1 59V       0.172900
     14 NBA         -0.6990     1.3060    -0.9240 nh         1 59V      -0.769300
     15 CAL         -0.4390    -0.1670    -0.9430 c6         1 59V       0.205800
     16 CAJ          0.8560    -0.5480    -0.1600 c6         1 59V       0.183300
     17 CAK          0.4850     2.0870    -1.4080 c6         1 59V       0.205800
     18 CAI          1.7960     1.7320    -0.6380 c6         1 59V       0.183300
     19 NAZ          2.0550     0.2530    -0.5810 nh         1 59V      -0.753300
     20 CAU          3.3360    -0.2720    -0.5280 cc         1 59V       0.689300
     21 SAR          4.7540     0.7110    -0.7450 ss         1 59V      -0.247800
     22 NAP          3.5800    -1.5560    -0.3110 nd         1 59V      -0.424000
     23 NAQ          4.9340    -1.8390    -0.3040 nd         1 59V      -0.219000
     24 CAV          5.6680    -0.7540    -0.5170 cc         1 59V       0.232700
     25 CBC          7.1830    -0.7420    -0.5670 c3         1 59V       0.301700
     26 FAE          7.7020     0.0750     0.3790 f          1 59V      -0.097667
     27 FAF          7.7200    -1.9690    -0.3670 f          1 59V      -0.097667
     28 FAD          7.6350    -0.3030    -1.7640 f          1 59V      -0.097667
     29 H1          -5.8520    -0.4650    -2.1590 hc         1 59V       0.090200
     30 H2          -7.0550     0.1300    -1.0320 hc         1 59V       0.090200
     31 H3          -3.2760     0.0740    -1.6140 ha         1 59V       0.205000
     32 H4          -1.5590     3.9510     2.5480 h5         1 59V       0.052100
     33 H5          -1.2830    -0.7230    -0.5090 h1         1 59V       0.076200
     34 H6          -0.3390    -0.5130    -1.9820 h1         1 59V       0.076200
     35 H7           0.6710    -0.3920     0.9130 h1         1 59V       0.070950
     36 H8           1.0250    -1.6260    -0.2980 h1         1 59V       0.070950
     37 H9           0.6440     1.8810    -2.4770 h1         1 59V       0.076200
     38 H10          0.3010     3.1690    -1.3330 h1         1 59V       0.076200
     39 H11          2.6190     2.2700    -1.1280 h1         1 59V       0.070950
     40 H12          1.7200     2.1300     0.3840 h1         1 59V       0.070950
     41 CAM         -6.0860    -0.3780    -1.0910 c3         1 59V      -0.080200
@<TRIPOS>BOND
     1     1     2 ar  
     2     1     5 ar  
     3     1    11 1   
     4     2     3 ar  
     5     2    12 1   
     6     3     4 ar  
     7     3    14 1   
     8     4    13 ar  
     9     5    13 ar  
    10     6     7 1   
    11     7     8 1   
    12     7     9 1   
    13     7    41 1   
    14    10    11 1   
    15    10    12 2   
    16    10    41 1   
    17    12    31 1   
    18    13    32 1   
    19    14    15 1   
    20    14    17 1   
    21    15    16 1   
    22    15    33 1   
    23    15    34 1   
    24    16    19 1   
    25    16    35 1   
    26    16    36 1   
    27    17    18 1   
    28    17    37 1   
    29    17    38 1   
    30    18    19 1   
    31    18    39 1   
    32    18    40 1   
    33    19    20 1   
    34    20    21 1   
    35    20    22 2   
    36    21    24 1   
    37    22    23 1   
    38    23    24 2   
    39    24    25 1   
    40    25    26 1   
    41    25    27 1   
    42    25    28 1   
    43    29    41 1   
    44    30    41 1   
@<TRIPOS>SUBSTRUCTURE
     1 59V         1 TEMP              0 ****  ****    0 ROOT
