@<TRIPOS>MOLECULE
59V
   41    44     1     0     0
SMALL
abcg2


@<TRIPOS>ATOM
      1 C4          -3.5900     1.9310     1.0280 ca         1 59V       0.153300
      2 C5          -2.8170     1.4120    -0.0150 ca         1 59V      -0.217800
      3 C6          -1.5160     1.9740    -0.1280 ca         1 59V       0.422900
      4 N1          -1.1810     2.9830     0.6730 nb         1 59V      -0.283000
      5 N3          -3.2270     2.9010     1.8620 nb         1 59V      -0.170000
      6 FAA         -4.9130    -2.6000     0.1120 f          1 59V      -0.112333
      7 CBB         -6.0420    -1.9030    -0.0600 c3         1 59V       0.301000
      8 FAB         -6.9360    -2.7290    -0.6170 f          1 59V      -0.112333
      9 FAC         -6.4990    -1.5990     1.1650 f          1 59V      -0.112333
     10 CAT         -4.8040     0.2450    -0.3200 cc         1 59V      -0.107600
     11 SAS         -5.1570     1.2050     1.0850 ss         1 59V      -0.055900
     12 CAH         -3.5530     0.4590    -0.7900 cd         1 59V      -0.120200
     13 C2          -2.0330     3.3920     1.6030 ca         1 59V       0.172900
     14 NBA         -0.6030     1.5720    -1.0490 nh         1 59V      -0.769300
     15 CAL         -0.4120     0.1820    -1.4240 c6         1 59V       0.205800
     16 CAJ          0.7360    -0.4380    -0.6390 c6         1 59V       0.183300
     17 CAK          0.6060     2.3420    -1.2660 c6         1 59V       0.205800
     18 CAI          1.7770     1.7940    -0.4690 c6         1 59V       0.183300
     19 NAZ          1.9410     0.3740    -0.7410 nh         1 59V      -0.753300
     20 CAU          3.1320    -0.2220    -0.6220 cc         1 59V       0.689300
     21 SAR          4.6140     0.6800    -0.4350 ss         1 59V      -0.247800
     22 NAP          3.3190    -1.5200    -0.6500 nd         1 59V      -0.424000
     23 NAQ          4.6080    -1.8600    -0.5570 nd         1 59V      -0.219000
     24 CAV          5.4020    -0.8590    -0.4410 cc         1 59V       0.232700
     25 CBC          6.8780    -0.9900    -0.2970 c3         1 59V       0.301700
     26 FAE          7.2800    -0.6260     0.9260 f          1 59V      -0.097667
     27 FAF          7.2740    -2.2390    -0.5050 f          1 59V      -0.097667
     28 FAD          7.5150    -0.1960    -1.1640 f          1 59V      -0.097667
     29 H1          -5.5040    -0.9820    -1.8950 hc         1 59V       0.090200
     30 H2          -6.7900    -0.1640    -1.0190 hc         1 59V       0.090200
     31 H3          -3.2010    -0.0260    -1.6890 ha         1 59V       0.205000
     32 H4          -1.6980     4.2150     2.2250 h5         1 59V       0.052100
     33 H5          -1.2950    -0.4140    -1.2250 h1         1 59V       0.076200
     34 H6          -0.2100     0.1290    -2.4960 h1         1 59V       0.076200
     35 H7           0.4500    -0.5450     0.4140 h1         1 59V       0.070950
     36 H8           0.9360    -1.4310    -1.0320 h1         1 59V       0.070950
     37 H9           0.8400     2.2910    -2.3330 h1         1 59V       0.076200
     38 H10          0.4470     3.3840    -1.0050 h1         1 59V       0.076200
     39 H11          2.6730     2.3380    -0.7730 h1         1 59V       0.070950
     40 H12          1.6240     1.9620     0.6020 h1         1 59V       0.070950
     41 CAM         -5.8290    -0.6690    -0.9010 c3         1 59V      -0.080200
@<TRIPOS>BOND
     1     1     2 ar  
     2     1     5 ar  
     3     1    11 1   
     4     2     3 ar  
     5     2    12 1   
     6     3     4 ar  
     7     3    14 1   
     8     4    13 ar  
     9     5    13 ar  
    10     6     7 1   
    11     7     8 1   
    12     7     9 1   
    13     7    41 1   
    14    10    11 1   
    15    10    12 2   
    16    10    41 1   
    17    12    31 1   
    18    13    32 1   
    19    14    15 1   
    20    14    17 1   
    21    15    16 1   
    22    15    33 1   
    23    15    34 1   
    24    16    19 1   
    25    16    35 1   
    26    16    36 1   
    27    17    18 1   
    28    17    37 1   
    29    17    38 1   
    30    18    19 1   
    31    18    39 1   
    32    18    40 1   
    33    19    20 1   
    34    20    21 1   
    35    20    22 2   
    36    21    24 1   
    37    22    23 1   
    38    23    24 2   
    39    24    25 1   
    40    25    26 1   
    41    25    27 1   
    42    25    28 1   
    43    29    41 1   
    44    30    41 1   
@<TRIPOS>SUBSTRUCTURE
     1 59V         1 TEMP              0 ****  ****    0 ROOT
