@<TRIPOS>MOLECULE
59W
   53    55     1     0     0
SMALL
bcc


@<TRIPOS>ATOM
      1 C1          -0.4200     3.4320    -0.3570 c3         1 59W       0.134400
      2 O1          -1.3160     2.3760    -0.1020 os         1 59W      -0.423600
      3 C2           0.9450     3.0320     0.1580 c3         1 59W       0.161800
      4 N2           1.4600     1.8820    -0.5580 n7         1 59W      -0.810200
      5 C3           2.7220     1.4100    -0.0290 c3         1 59W       0.160800
      6 C4           3.2510     0.2340    -0.8490 c3         1 59W      -0.037100
      7 N1          -3.9310     2.6850     1.2170 n7         1 59W      -0.780200
      8 C11          4.5570    -0.2690    -0.3030 ca         1 59W      -0.051300
      9 C12          4.5830    -1.3280     0.6000 ca         1 59W      -0.168000
     10 C13          5.7930    -1.7390     1.1260 ca         1 59W       0.135900
     11 F13          5.8010    -2.7640     1.9960 f          1 59W      -0.146900
     12 C14          6.9910    -1.1390     0.7930 ca         1 59W      -0.172000
     13 C15          6.9590    -0.0820    -0.1080 ca         1 59W      -0.102000
     14 C16          5.7570     0.3480    -0.6510 ca         1 59W      -0.143000
     15 N1A         -3.3450    -1.9550     0.4350 nb         1 59W      -0.752000
     16 C8          -3.5020     3.4330     0.0390 c5         1 59W       0.111800
     17 C2A         -3.3140    -1.3310    -0.7430 ca         1 59W       0.461600
     18 C9          -2.5730     2.4940    -0.7270 c5         1 59W       0.112100
     19 C3A         -4.0320    -1.7800    -1.8420 ca         1 59W      -0.300300
     20 C10         -3.3200     1.1700    -0.5780 c5         1 59W      -0.078700
     21 C4A         -4.8110    -2.9230    -1.6950 ca         1 59W      -0.052000
     22 C5          -3.9510     1.2660     0.8300 c5         1 59W       0.146800
     23 C5A         -4.8550    -3.5720    -0.4810 ca         1 59W      -0.315300
     24 C6A         -4.0960    -3.0450     0.5770 ca         1 59W       0.664200
     25 N6A         -4.1320    -3.6140     1.8170 nv         1 59W      -0.945500
     26 C7A         -2.4810    -0.0830    -0.8260 c3         1 59W      -0.114700
     27 H1          -0.3650     3.6380    -1.4350 h1         1 59W       0.030700
     28 H1A         -0.7350     4.3610     0.1360 h1         1 59W       0.030700
     29 H2           1.6240     3.8760     0.0090 h1         1 59W       0.037700
     30 H2A          0.8880     2.8700     1.2470 h1         1 59W       0.037700
     31 HN2          0.7800     1.1330    -0.4970 hn         1 59W       0.365800
     32 H3           3.4460     2.2290    -0.0710 h1         1 59W       0.032200
     33 H3A          2.6580     1.1130     1.0300 h1         1 59W       0.032200
     34 H4           2.5110    -0.5710    -0.8460 hc         1 59W       0.056700
     35 H4A          3.3720     0.5530    -1.8870 hc         1 59W       0.056700
     36 HN1         -3.2370     2.8120     1.9400 hn         1 59W       0.349800
     37 H12          3.6680    -1.8310     0.8910 ha         1 59W       0.148000
     38 H14          7.9220    -1.4840     1.2230 ha         1 59W       0.149000
     39 H15          7.8830     0.4060    -0.3860 ha         1 59W       0.135000
     40 H16          5.7510     1.1720    -1.3550 ha         1 59W       0.136000
     41 H6          -4.3620     3.6810    -0.5920 h1         1 59W       0.056200
     42 H2'A        -3.0380     4.3780     0.3270 h1         1 59W       0.056200
     43 H8          -2.4520     2.7820    -1.7810 h1         1 59W       0.048700
     44 H3AA        -3.9780    -1.2550    -2.7870 ha         1 59W       0.140000
     45 H9          -4.1250     1.1900    -1.3210 hc         1 59W       0.056700
     46 H4AA        -5.3830    -3.3060    -2.5310 ha         1 59W       0.132000
     47 H5          -3.3990     0.6650     1.5560 h1         1 59W       0.059200
     48 H5'A        -4.9730     0.8800     0.8150 h1         1 59W       0.059200
     49 H5A         -5.4510    -4.4650    -0.3410 ha         1 59W       0.139000
     50 HN6A        -3.3860    -3.3600     2.4450 hn         1 59W       0.414300
     51 HN6B        -4.4130    -4.5770     1.8800 hn         1 59W       0.414300
     52 H7A         -1.6740    -0.1450    -0.0940 hc         1 59W       0.063200
     53 H7AA        -2.0220    -0.0170    -1.8160 hc         1 59W       0.063200
@<TRIPOS>BOND
     1     1     2 1   
     2     1     3 1   
     3     1    27 1   
     4     1    28 1   
     5     2    18 1   
     6     3     4 1   
     7     3    29 1   
     8     3    30 1   
     9     4     5 1   
    10     4    31 1   
    11     5     6 1   
    12     5    32 1   
    13     5    33 1   
    14     6     8 1   
    15     6    34 1   
    16     6    35 1   
    17     7    16 1   
    18     7    22 1   
    19     7    36 1   
    20     8     9 ar  
    21     8    14 ar  
    22     9    10 ar  
    23     9    37 1   
    24    10    11 1   
    25    10    12 ar  
    26    12    13 ar  
    27    12    38 1   
    28    13    14 ar  
    29    13    39 1   
    30    14    40 1   
    31    15    17 ar  
    32    15    24 ar  
    33    16    18 1   
    34    16    41 1   
    35    16    42 1   
    36    17    19 ar  
    37    17    26 1   
    38    18    20 1   
    39    18    43 1   
    40    19    21 ar  
    41    19    44 1   
    42    20    22 1   
    43    20    26 1   
    44    20    45 1   
    45    21    23 ar  
    46    21    46 1   
    47    22    47 1   
    48    22    48 1   
    49    23    24 ar  
    50    23    49 1   
    51    24    25 1   
    52    25    50 1   
    53    25    51 1   
    54    26    52 1   
    55    26    53 1   
@<TRIPOS>SUBSTRUCTURE
     1 59W         1 TEMP              0 ****  ****    0 ROOT
