@<TRIPOS>MOLECULE
59W
   53    55     1     0     0
SMALL
No Charge or Current Charge


@<TRIPOS>ATOM
      1 C1          -0.4590     3.5970    -0.4630 c3         1 59W       0.157600
      2 O1          -1.3120     2.4400    -0.3120 os         1 59W      -0.470000
      3 C2           0.9420     3.2510     0.1050 c3         1 59W       0.161800
      4 N2           1.5320     2.0850    -0.5930 n7         1 59W      -0.865400
      5 C3           2.7610     1.5430     0.0160 c3         1 59W       0.160800
      6 C4           3.2720     0.3300    -0.7870 c3         1 59W      -0.037100
      7 N1          -3.6310     2.7300     1.3010 n7         1 59W      -0.835400
      8 C11          4.5420    -0.2570    -0.1850 ca         1 59W      -0.051300
      9 C12          4.4650    -1.2960     0.7640 ca         1 59W      -0.150000
     10 C13          5.6390    -1.8310     1.3190 ca         1 59W       0.171000
     11 F13          5.5570    -2.8270     2.2280 f          1 59W      -0.182000
     12 C14          6.8950    -1.3370     0.9370 ca         1 59W      -0.154000
     13 C15          6.9790    -0.2990    -0.0070 ca         1 59W      -0.084000
     14 C16          5.8050     0.2380    -0.5650 ca         1 59W      -0.125000
     15 N1A         -3.1660    -2.1280     0.3000 nb         1 59W      -0.752000
     16 C8          -3.5390     3.4630     0.0130 c5         1 59W       0.111800
     17 C2A         -3.4250    -1.3850    -0.8010 ca         1 59W       0.396300
     18 C9          -2.6580     2.5240    -0.8620 c5         1 59W       0.135300
     19 C3A         -4.4020    -1.7480    -1.7490 ca         1 59W      -0.217000
     20 C10         -3.3920     1.1800    -0.5980 c5         1 59W      -0.078700
     21 C4A         -5.1430    -2.9250    -1.5590 ca         1 59W      -0.034000
     22 C5          -3.8000     1.2990     0.9110 c5         1 59W       0.146800
     23 C5A         -4.8670    -3.6880    -0.4160 ca         1 59W      -0.232000
     24 C6A         -3.8790    -3.2330     0.4610 ca         1 59W       0.598900
     25 N6A         -3.5260    -3.8780     1.5740 nv         1 59W      -1.055900
     26 C7A         -2.6120    -0.1090    -0.9750 c3         1 59W      -0.114700
     27 H1          -0.3650     3.8750    -1.5210 h1         1 59W       0.030700
     28 H1A         -0.8620     4.4590     0.0840 h1         1 59W       0.030700
     29 H2           1.5950     4.1290     0.0070 h1         1 59W       0.037700
     30 H2A          0.8320     3.0400     1.1770 h1         1 59W       0.037700
     31 HN2          0.8120     1.3510    -0.5790 hn         1 59W       0.421000
     32 H3           3.5460     2.3110     0.0390 h1         1 59W       0.032200
     33 H3A          2.5690     1.2290     1.0510 h1         1 59W       0.032200
     34 H4           2.4860    -0.4340    -0.8270 hc         1 59W       0.056700
     35 H4A          3.4560     0.6380    -1.8240 hc         1 59W       0.056700
     36 HN1         -2.6990     2.8020     1.7280 hn         1 59W       0.405000
     37 H12          3.5000    -1.6890     1.0720 ha         1 59W       0.130000
     38 H14          7.7990    -1.7560     1.3730 ha         1 59W       0.131000
     39 H15          7.9510     0.0890    -0.3060 ha         1 59W       0.117000
     40 H16          5.8780     1.0430    -1.2940 ha         1 59W       0.118000
     41 H6          -4.5350     3.5890    -0.4370 h1         1 59W       0.056200
     42 H2'A        -3.1040     4.4640     0.1370 h1         1 59W       0.056200
     43 H8          -2.6230     2.8040    -1.9240 h1         1 59W       0.048700
     44 H3AA        -4.5800    -1.1210    -2.6180 ha         1 59W       0.122000
     45 H9          -4.3040     1.1650    -1.2070 hc         1 59W       0.056700
     46 H4AA        -5.9040    -3.2340    -2.2730 ha         1 59W       0.114000
     47 H5          -3.1760     0.6580     1.5500 h1         1 59W       0.059200
     48 H5'A        -4.8420     0.9740     1.0480 h1         1 59W       0.059200
     49 H5A         -5.4080    -4.6080    -0.2150 ha         1 59W       0.121000
     50 HN6A        -2.6510    -3.5690     1.9790 hn         1 59W       0.469500
     51 HN6B        -3.7250    -4.8700     1.6260 hn         1 59W       0.469500
     52 H7A         -1.6900    -0.1730    -0.3840 hc         1 59W       0.063200
     53 H7AA        -2.2850    -0.0400    -2.0190 hc         1 59W       0.063200
@<TRIPOS>BOND
     1     1     2 1   
     2     1     3 1   
     3     1    27 1   
     4     1    28 1   
     5     2    18 1   
     6     3     4 1   
     7     3    29 1   
     8     3    30 1   
     9     4     5 1   
    10     4    31 1   
    11     5     6 1   
    12     5    32 1   
    13     5    33 1   
    14     6     8 1   
    15     6    34 1   
    16     6    35 1   
    17     7    16 1   
    18     7    22 1   
    19     7    36 1   
    20     8     9 ar  
    21     8    14 ar  
    22     9    10 ar  
    23     9    37 1   
    24    10    11 1   
    25    10    12 ar  
    26    12    13 ar  
    27    12    38 1   
    28    13    14 ar  
    29    13    39 1   
    30    14    40 1   
    31    15    17 ar  
    32    15    24 ar  
    33    16    18 1   
    34    16    41 1   
    35    16    42 1   
    36    17    19 ar  
    37    17    26 1   
    38    18    20 1   
    39    18    43 1   
    40    19    21 ar  
    41    19    44 1   
    42    20    22 1   
    43    20    26 1   
    44    20    45 1   
    45    21    23 ar  
    46    21    46 1   
    47    22    47 1   
    48    22    48 1   
    49    23    24 ar  
    50    23    49 1   
    51    24    25 1   
    52    25    50 1   
    53    25    51 1   
    54    26    52 1   
    55    26    53 1   
@<TRIPOS>SUBSTRUCTURE
     1 59W         1 TEMP              0 ****  ****    0 ROOT
