@<TRIPOS>MOLECULE
59X
   47    50     1     0     0
SMALL
No Charge or Current Charge


@<TRIPOS>ATOM
      1 C4          -3.9860    -1.4540    -0.2890 ca         1 59X       0.157300
      2 C5          -2.7420    -0.8890    -0.1150 ca         1 59X      -0.215800
      3 C6          -1.6120    -1.7250    -0.1160 ca         1 59X       0.423900
      4 N1          -1.7600    -3.0550    -0.3060 nb         1 59X      -0.275000
      5 N3          -4.1600    -2.7750    -0.4710 nb         1 59X      -0.175000
      6 FAC         -5.3510     4.3660    -1.1570 f          1 59X      -0.269000
      7 CAF         -4.9780     3.0710    -1.3050 c3         1 59X       0.184600
      8 CAS         -4.1240     1.0470    -0.0400 cc         1 59X      -0.083600
      9 SAQ         -5.3180    -0.2660    -0.2650 ss         1 59X      -0.110900
     10 CAE         -2.8380     0.5480     0.0180 cd         1 59X      -0.140200
     11 C2          -3.0250    -3.5120    -0.4720 ca         1 59X       0.167900
     12 NAX         -0.3060    -1.2270     0.0730 nh         1 59X      -0.774300
     13 CAK          0.0500    -0.6080     1.3850 c6         1 59X       0.204800
     14 CAI          1.2930     0.3300     1.2830 c6         1 59X       0.206300
     15 CAJ          0.8660    -1.9310    -0.5320 c6         1 59X       0.204800
     16 CAH          2.1240    -1.0120    -0.6460 c6         1 59X       0.206300
     17 NAW          2.4830    -0.3130     0.6320 nh         1 59X      -0.733600
     18 CAR          3.7190     0.2920     0.7430 c2         1 59X       0.695100
     19 SAP          5.1060    -0.7410     0.3740 ss         1 59X      -0.412200
     20 CAY          6.1050     0.7960     0.2870 c5         1 59X       0.082000
     21 CAA          7.5560     0.4940     0.7300 c3         1 59X      -0.077600
     22 CAB          6.1030     1.3020    -1.1780 c3         1 59X      -0.077600
     23 CAL          5.3430     1.7570     1.2650 c5         1 59X       0.121800
     24 NAM          3.8700     1.4970     1.1550 n2         1 59X      -0.673900
     25 H1          -5.8240     2.5060    -1.7170 h1         1 59X       0.049200
     26 H2          -4.1400     3.0240    -2.0110 h1         1 59X       0.049200
     27 H3          -3.7460     3.0930     0.4700 hc         1 59X       0.068200
     28 H4          -5.4000     2.5680     0.7540 hc         1 59X       0.068200
     29 H5          -1.9700     1.1930     0.1280 ha         1 59X       0.205000
     30 H6          -3.1410    -4.5840    -0.6210 h5         1 59X       0.050100
     31 H7          -0.7920    -0.0300     1.7900 h1         1 59X       0.063700
     32 H8           0.2730    -1.3990     2.1160 h1         1 59X       0.063700
     33 H9           1.0100     1.2360     0.7260 h1         1 59X       0.062450
     34 H10          1.5500     0.6500     2.3030 h1         1 59X       0.062450
     35 H11          1.1300    -2.8080     0.0770 h1         1 59X       0.063700
     36 H12          0.6170    -2.2970    -1.5390 h1         1 59X       0.063700
     37 H13          2.9530    -1.6420    -0.9950 h1         1 59X       0.062450
     38 H14          1.9450    -0.2650    -1.4330 h1         1 59X       0.062450
     39 H15          8.0310    -0.2390     0.0670 hc         1 59X       0.047033
     40 H16          8.1700     1.4030     0.7190 hc         1 59X       0.047033
     41 H17          7.5830     0.0860     1.7470 hc         1 59X       0.047033
     42 H18          5.0860     1.4950    -1.5380 hc         1 59X       0.047033
     43 H19          6.6690     2.2370    -1.2740 hc         1 59X       0.047033
     44 H20          6.5580     0.5680    -1.8530 hc         1 59X       0.047033
     45 H21          5.6610     1.5950     2.3050 h1         1 59X       0.067700
     46 H22          5.5680     2.8050     1.0240 h1         1 59X       0.067700
     47 CAG         -4.5590     2.4840     0.0560 c3         1 59X      -0.046200
@<TRIPOS>BOND
     1     1     2 ar  
     2     1     5 ar  
     3     1     9 1   
     4     2     3 ar  
     5     2    10 1   
     6     3     4 ar  
     7     3    12 1   
     8     4    11 ar  
     9     5    11 ar  
    10     6     7 1   
    11     7    25 1   
    12     7    26 1   
    13     7    47 1   
    14     8     9 1   
    15     8    10 2   
    16     8    47 1   
    17    10    29 1   
    18    11    30 1   
    19    12    13 1   
    20    12    15 1   
    21    13    14 1   
    22    13    31 1   
    23    13    32 1   
    24    14    17 1   
    25    14    33 1   
    26    14    34 1   
    27    15    16 1   
    28    15    35 1   
    29    15    36 1   
    30    16    17 1   
    31    16    37 1   
    32    16    38 1   
    33    17    18 1   
    34    18    19 1   
    35    18    24 2   
    36    19    20 1   
    37    20    21 1   
    38    20    22 1   
    39    20    23 1   
    40    21    39 1   
    41    21    40 1   
    42    21    41 1   
    43    22    42 1   
    44    22    43 1   
    45    22    44 1   
    46    23    24 1   
    47    23    45 1   
    48    23    46 1   
    49    27    47 1   
    50    28    47 1   
@<TRIPOS>SUBSTRUCTURE
     1 59X         1 TEMP              0 ****  ****    0 ROOT
