@<TRIPOS>MOLECULE
59X
   47    50     1     0     0
SMALL
bcc


@<TRIPOS>ATOM
      1 C4          -3.8740    -1.4270    -0.2450 ca         1 59X       0.485600
      2 C5          -2.6430    -0.7990    -0.0480 ca         1 59X      -0.346400
      3 C6          -1.5160    -1.6610    -0.1050 ca         1 59X       0.752200
      4 N1          -1.6970    -2.9360    -0.4370 nb         1 59X      -0.801000
      5 N3          -4.0550    -2.7160    -0.5190 nb         1 59X      -0.701000
      6 FAC         -5.5440     4.2280    -1.0660 f          1 59X      -0.250300
      7 CAF         -5.0980     2.9150    -1.1870 c3         1 59X       0.165900
      8 CAS         -4.0780     1.0290     0.0700 cc         1 59X      -0.083600
      9 SAQ         -5.1820    -0.2980    -0.1640 ss         1 59X      -0.110900
     10 CAE         -2.7890     0.6190     0.1020 cd         1 59X      -0.090200
     11 C2          -2.9290    -3.3910    -0.6280 ca         1 59X       0.693900
     12 NAX         -0.2470    -1.2340     0.1190 nh         1 59X      -0.774300
     13 CAK          0.0880    -0.3180     1.1980 c6         1 59X       0.204800
     14 CAI          1.2480     0.5740     0.8080 c6         1 59X       0.206300
     15 CAJ          0.8810    -2.0800    -0.2250 c6         1 59X       0.204800
     16 CAH          2.0540    -1.2120    -0.6430 c6         1 59X       0.206300
     17 NAW          2.3750    -0.2380     0.3850 nh         1 59X      -0.733600
     18 CAR          3.6240     0.2630     0.5440 c2         1 59X       0.695100
     19 SAP          5.0170    -0.7080    -0.0050 ss         1 59X      -0.364300
     20 CAY          6.1030     0.7530     0.2620 c5         1 59X       0.034100
     21 CAA          7.4660     0.3190     0.7730 c3         1 59X      -0.077600
     22 CAB          6.2240     1.5310    -1.0420 c3         1 59X      -0.077600
     23 CAL          5.3070     1.5430     1.3180 c5         1 59X       0.121800
     24 NAM          3.8910     1.3710     1.1130 n2         1 59X      -0.673900
     25 H1          -5.9330     2.3070    -1.5390 h1         1 59X       0.049200
     26 H2          -4.3030     2.8880    -1.9330 h1         1 59X       0.049200
     27 H3          -3.7740     3.0710     0.4960 hc         1 59X       0.068200
     28 H4          -5.3890     2.4970     0.9000 hc         1 59X       0.068200
     29 H5          -1.9750     1.3230     0.1930 ha         1 59X       0.155000
     30 H6          -3.0140    -4.4400    -0.8910 h5         1 59X       0.050100
     31 H7          -0.7620     0.2940     1.4810 h1         1 59X       0.063700
     32 H8           0.3660    -0.9020     2.0840 h1         1 59X       0.063700
     33 H9           0.9460     1.2640     0.0110 h1         1 59X       0.062450
     34 H10          1.5430     1.1710     1.6690 h1         1 59X       0.062450
     35 H11          1.1640    -2.7130     0.6250 h1         1 59X       0.063700
     36 H12          0.6190    -2.7330    -1.0530 h1         1 59X       0.063700
     37 H13          2.9070    -1.8630    -0.8280 h1         1 59X       0.062450
     38 H14          1.8120    -0.7090    -1.5870 h1         1 59X       0.062450
     39 H15          8.0120    -0.2600     0.0280 hc         1 59X       0.047033
     40 H16          8.0660     1.2020     1.0070 hc         1 59X       0.047033
     41 H17          7.3830    -0.2800     1.6800 hc         1 59X       0.047033
     42 H18          5.2520     1.8750    -1.3960 hc         1 59X       0.047033
     43 H19          6.8580     2.4080    -0.8920 hc         1 59X       0.047033
     44 H20          6.6760     0.9210    -1.8240 hc         1 59X       0.047033
     45 H21          5.5820     1.1960     2.3220 h1         1 59X       0.067700
     46 H22          5.5780     2.6010     1.2630 h1         1 59X       0.067700
     47 CAG         -4.5890     2.4280     0.1590 c3         1 59X      -0.046200
@<TRIPOS>BOND
     1     1     2 ar  
     2     1     5 ar  
     3     1     9 1   
     4     2     3 ar  
     5     2    10 1   
     6     3     4 ar  
     7     3    12 1   
     8     4    11 ar  
     9     5    11 ar  
    10     6     7 1   
    11     7    25 1   
    12     7    26 1   
    13     7    47 1   
    14     8     9 1   
    15     8    10 2   
    16     8    47 1   
    17    10    29 1   
    18    11    30 1   
    19    12    13 1   
    20    12    15 1   
    21    13    14 1   
    22    13    31 1   
    23    13    32 1   
    24    14    17 1   
    25    14    33 1   
    26    14    34 1   
    27    15    16 1   
    28    15    35 1   
    29    15    36 1   
    30    16    17 1   
    31    16    37 1   
    32    16    38 1   
    33    17    18 1   
    34    18    19 1   
    35    18    24 2   
    36    19    20 1   
    37    20    21 1   
    38    20    22 1   
    39    20    23 1   
    40    21    39 1   
    41    21    40 1   
    42    21    41 1   
    43    22    42 1   
    44    22    43 1   
    45    22    44 1   
    46    23    24 1   
    47    23    45 1   
    48    23    46 1   
    49    27    47 1   
    50    28    47 1   
@<TRIPOS>SUBSTRUCTURE
     1 59X         1 TEMP              0 ****  ****    0 ROOT
