@<TRIPOS>MOLECULE
59Y
   35    38     1     0     0
SMALL
No Charge or Current Charge


@<TRIPOS>ATOM
      1 C1          -0.0550    -1.6290    -0.0860 cp         1 59Y      -0.019000
      2 C2          -0.0890    -3.0000     0.2670 ca         1 59Y      -0.118000
      3 C3          -1.2870    -3.6190     0.6470 ca         1 59Y      -0.141000
      4 C11         -3.6680    -0.7910     0.3480 ca         1 59Y      -0.122000
      5 C12         -3.6420     0.5620    -0.0180 ca         1 59Y      -0.112000
      6 C13         -2.4240     1.1650    -0.4050 ca         1 59Y       0.307500
      7 C15         -2.4100     2.6650    -0.8140 c          1 59Y       0.609500
      8 C16          3.2030     0.4200    -0.0580 ca         1 59Y      -0.030000
      9 C17          1.9640    -0.1210     0.3670 ca         1 59Y       0.001000
     10 C18          1.4660     0.2390     1.6410 ca         1 59Y      -0.063000
     11 C19          2.1820     1.1240     2.4650 ca         1 59Y      -0.122000
     12 C20          3.4030     1.6610     2.0310 ca         1 59Y      -0.108000
     13 C21          3.9130     1.3080     0.7720 ca         1 59Y      -0.108000
     14 C4          -2.4750    -2.8790     0.6770 ca         1 59Y      -0.089000
     15 C5           1.2520    -1.0200    -0.4800 cp         1 59Y       0.024000
     16 C6           3.7350     0.0680    -1.3120 ca         1 59Y      -0.108000
     17 C7           1.8190    -1.3650    -1.7290 ca         1 59Y      -0.107000
     18 C8           3.0450    -0.8250    -2.1450 ca         1 59Y      -0.106000
     19 C9          -1.2640    -0.8720    -0.0700 ca         1 59Y       0.273000
     20 C10         -2.4680    -1.5180     0.3200 ca         1 59Y      -0.100000
     21 N14         -1.2610     0.4390    -0.4250 nb         1 59Y      -0.635000
     22 O22         -3.4600     3.2990    -0.7770 o          1 59Y      -0.694000
     23 O23         -1.3550     3.1880    -1.1670 o          1 59Y      -0.694000
     24 H1           0.8300    -3.5800     0.2490 ha         1 59Y       0.101000
     25 H2          -1.2940    -4.6720     0.9200 ha         1 59Y       0.095000
     26 H3          -4.6030    -1.2620     0.6440 ha         1 59Y       0.094000
     27 H4          -4.5610     1.1410    -0.0040 ha         1 59Y       0.142000
     28 H7           3.9550     2.3460     2.6700 ha         1 59Y       0.098000
     29 H8           4.8630     1.7240     0.4430 ha         1 59Y       0.099000
     30 H9          -3.4030    -3.3640     0.9740 ha         1 59Y       0.098000
     31 H10          4.6850     0.4820    -1.6410 ha         1 59Y       0.099000
     32 H11          1.2920    -2.0560    -2.3820 ha         1 59Y       0.109000
     33 H12          3.4610    -1.1000    -3.1120 ha         1 59Y       0.099000
     34 H5           0.5250    -0.1640     2.0040 ha         1 59Y       0.122000
     35 H6           1.7870     1.3940     3.4420 ha         1 59Y       0.103000
@<TRIPOS>BOND
     1     1     2 ar  
     2     1    15 1   
     3     1    19 ar  
     4     2     3 ar  
     5     2    24 1   
     6     3    14 ar  
     7     3    25 1   
     8     4     5 ar  
     9     4    20 ar  
    10     4    26 1   
    11     5     6 ar  
    12     5    27 1   
    13     6     7 1   
    14     6    21 ar  
    15     7    22 1   
    16     7    23 1   
    17     8     9 ar  
    18     8    13 ar  
    19     8    16 ar  
    20     9    10 ar  
    21     9    15 ar  
    22    10    11 ar  
    23    10    34 1   
    24    11    12 ar  
    25    11    35 1   
    26    12    13 ar  
    27    12    28 1   
    28    13    29 1   
    29    14    20 ar  
    30    14    30 1   
    31    15    17 ar  
    32    16    18 ar  
    33    16    31 1   
    34    17    18 ar  
    35    17    32 1   
    36    18    33 1   
    37    19    20 ar  
    38    19    21 ar  
@<TRIPOS>SUBSTRUCTURE
     1 59Y         1 TEMP              0 ****  ****    0 ROOT
