@<TRIPOS>MOLECULE
59Y
   35    38     1     0     0
SMALL
bcc


@<TRIPOS>ATOM
      1 C1          -0.0500    -1.6510    -0.0900 cp         1 59Y      -0.084300
      2 C2          -0.0860    -2.9810     0.2510 ca         1 59Y      -0.136000
      3 C3          -1.2860    -3.6090     0.6420 ca         1 59Y      -0.159000
      4 C11         -3.6260    -0.7370     0.3710 ca         1 59Y      -0.140000
      5 C12         -3.5530     0.5770     0.0120 ca         1 59Y      -0.195300
      6 C13         -2.3090     1.1160    -0.4010 ca         1 59Y       0.372800
      7 C15         -2.2350     2.5860    -0.8320 c          1 59Y       0.820100
      8 C16          3.1400     0.4470    -0.0680 ca         1 59Y      -0.030000
      9 C17          1.9070    -0.1140     0.3580 ca         1 59Y       0.001000
     10 C18          1.4140     0.2330     1.6380 ca         1 59Y      -0.081000
     11 C19          2.1000     1.0980     2.4460 ca         1 59Y      -0.140000
     12 C20          3.3180     1.6650     2.0160 ca         1 59Y      -0.126000
     13 C21          3.8250     1.3430     0.7880 ca         1 59Y      -0.126000
     14 C4          -2.4510    -2.8960     0.6940 ca         1 59Y      -0.107000
     15 C5           1.2250    -1.0200    -0.5030 cp         1 59Y       0.024000
     16 C6           3.6660     0.0970    -1.3340 ca         1 59Y      -0.126000
     17 C7           1.7760    -1.3430    -1.7170 ca         1 59Y      -0.125000
     18 C8           2.9990    -0.7830    -2.1390 ca         1 59Y      -0.124000
     19 C9          -1.2560    -0.8940    -0.0610 ca         1 59Y       0.403600
     20 C10         -2.4570    -1.5280     0.3450 ca         1 59Y      -0.165300
     21 N14         -1.2130     0.4030    -0.4340 nb         1 59Y      -0.635000
     22 O22         -3.2800     3.2450    -0.6590 o          1 59Y      -0.799300
     23 O23         -1.1610     2.9800    -1.3070 o          1 59Y      -0.799300
     24 H1           0.8280    -3.5620     0.2320 ha         1 59Y       0.119000
     25 H2          -1.2740    -4.6580     0.9050 ha         1 59Y       0.113000
     26 H3          -4.5650    -1.1820     0.6780 ha         1 59Y       0.112000
     27 H4          -4.4280     1.2090     0.0260 ha         1 59Y       0.160000
     28 H7           3.8490     2.3500     2.6630 ha         1 59Y       0.116000
     29 H8           4.7640     1.7690     0.4550 ha         1 59Y       0.117000
     30 H9          -3.3780    -3.3670     1.0000 ha         1 59Y       0.116000
     31 H10          4.6060     0.5320    -1.6510 ha         1 59Y       0.117000
     32 H11          1.2580    -2.0350    -2.3690 ha         1 59Y       0.127000
     33 H12          3.4020    -1.0550    -3.1060 ha         1 59Y       0.117000
     34 H5           0.4840    -0.1980     1.9840 ha         1 59Y       0.140000
     35 H6           1.7090     1.3500     3.4230 ha         1 59Y       0.121000
@<TRIPOS>BOND
     1     1     2 ar  
     2     1    15 1   
     3     1    19 ar  
     4     2     3 ar  
     5     2    24 1   
     6     3    14 ar  
     7     3    25 1   
     8     4     5 ar  
     9     4    20 ar  
    10     4    26 1   
    11     5     6 ar  
    12     5    27 1   
    13     6     7 1   
    14     6    21 ar  
    15     7    22 1   
    16     7    23 1   
    17     8     9 ar  
    18     8    13 ar  
    19     8    16 ar  
    20     9    10 ar  
    21     9    15 ar  
    22    10    11 ar  
    23    10    34 1   
    24    11    12 ar  
    25    11    35 1   
    26    12    13 ar  
    27    12    28 1   
    28    13    29 1   
    29    14    20 ar  
    30    14    30 1   
    31    15    17 ar  
    32    16    18 ar  
    33    16    31 1   
    34    17    18 ar  
    35    17    32 1   
    36    18    33 1   
    37    19    20 ar  
    38    19    21 ar  
@<TRIPOS>SUBSTRUCTURE
     1 59Y         1 TEMP              0 ****  ****    0 ROOT
