@<TRIPOS>MOLECULE
59Z
   37    39     1     0     0
SMALL
No Charge or Current Charge


@<TRIPOS>ATOM
      1 C7           4.0730     0.2220     0.5310 c3         1 59Z      -0.230000
      2 C17         -3.4370     0.1680     0.0180 ca         1 59Z       0.020000
      3 C21         -2.2240     2.7190    -0.3660 ca         1 59Z      -0.019000
      4 C24         -0.0550     1.4590     0.0340 cc         1 59Z      -0.225200
      5 C26         -5.6210     1.2150    -0.4080 ca         1 59Z      -0.130000
      6 C28         -6.2530    -0.0290    -0.2820 ca         1 59Z      -0.146000
      7 P1           5.1830     1.5970    -0.0760 p5         1 59Z       1.299500
      8 O2           4.5040     2.8990     0.1900 o          1 59Z      -0.933833
      9 O3           6.4840     1.5340     0.6520 o          1 59Z      -0.933833
     10 O5           5.4050     1.4290    -1.5420 o          1 59Z      -0.933833
     11 N10          2.6200     0.4950     0.3910 ns         1 59Z      -0.404900
     12 C12          1.6050    -0.4280     0.5610 c          1 59Z       0.586300
     13 O13          1.8380    -1.5960     0.8500 o          1 59Z      -0.658100
     14 C14          0.2280     0.1320     0.3570 cd         1 59Z      -0.096300
     15 N15         -1.0060    -0.5640     0.5040 na         1 59Z       0.036300
     16 C16         -2.0300     0.3460     0.1710 ca         1 59Z      -0.052200
     17 C18         -4.2230     1.3210    -0.2730 ca         1 59Z      -0.029000
     18 C19         -3.6180     2.5850    -0.4490 ca         1 59Z      -0.205000
     19 C23         -1.4720     1.5800    -0.0610 ca         1 59Z      -0.144800
     20 C30         -5.4880    -1.1770    -0.0360 ca         1 59Z      -0.158000
     21 C32         -4.0930    -1.0840     0.1070 ca         1 59Z      -0.063000
     22 C34         -1.2040    -1.7720     1.3340 c3         1 59Z      -0.101400
     23 C37         -1.1110    -3.1060     0.5700 c          1 59Z       0.727000
     24 O38         -1.1840    -3.1080    -0.6510 o          1 59Z      -0.724000
     25 O39         -1.0290    -4.1290     1.2360 o          1 59Z      -0.724000
     26 H1           4.3230    -0.6890    -0.0270 h1         1 59Z       0.017200
     27 H2           4.2930     0.0520     1.5920 h1         1 59Z       0.017200
     28 H5          -6.2180     2.0980    -0.6220 ha         1 59Z       0.076000
     29 H6          -7.3320    -0.1060    -0.3930 ha         1 59Z       0.071000
     30 H9           2.3390     1.4400     0.1560 hn         1 59Z       0.335500
     31 H10         -4.2250     3.4570    -0.6790 ha         1 59Z       0.073000
     32 H11         -5.9760    -2.1460     0.0380 ha         1 59Z       0.086000
     33 H12         -3.5450    -2.0030     0.2560 ha         1 59Z       0.147000
     34 H13         -0.4320    -1.7850     2.1120 h1         1 59Z       0.051700
     35 H14         -2.1650    -1.7190     1.8550 h1         1 59Z       0.051700
     36 H3          -1.7430     3.6800    -0.5350 ha         1 59Z       0.095000
     37 H4           0.6630     2.2600    -0.1290 ha         1 59Z       0.224000
@<TRIPOS>BOND
     1     1     7 1   
     2     1    11 1   
     3     1    26 1   
     4     1    27 1   
     5     2    16 ar  
     6     2    17 ar  
     7     2    21 ar  
     8     3    18 ar  
     9     3    19 ar  
    10     3    36 1   
    11     4    14 2   
    12     4    19 1   
    13     4    37 1   
    14     5     6 ar  
    15     5    17 ar  
    16     5    28 1   
    17     6    20 ar  
    18     6    29 1   
    19     7     8 1   
    20     7     9 1   
    21     7    10 1   
    22    11    12 1   
    23    11    30 1   
    24    12    13 2   
    25    12    14 1   
    26    14    15 1   
    27    15    16 1   
    28    15    22 1   
    29    16    19 ar  
    30    17    18 ar  
    31    18    31 1   
    32    20    21 ar  
    33    20    32 1   
    34    21    33 1   
    35    22    23 1   
    36    22    34 1   
    37    22    35 1   
    38    23    24 1   
    39    23    25 1   
@<TRIPOS>SUBSTRUCTURE
     1 59Z         1 TEMP              0 ****  ****    0 ROOT
