@<TRIPOS>MOLECULE
59Z
   37    39     1     0     0
SMALL
abcg2


@<TRIPOS>ATOM
      1 C7           3.9950     0.1740     0.7660 c3         1 59Z      -0.230000
      2 C17         -3.3520     0.1660     0.1560 ca         1 59Z       0.020000
      3 C21         -2.2150     2.5490    -0.9740 ca         1 59Z      -0.019000
      4 C24          0.0210     1.4010    -0.3920 cc         1 59Z      -0.225200
      5 C26         -5.5610     1.1090    -0.3240 ca         1 59Z      -0.130000
      6 C28         -6.1790    -0.0150     0.1610 ca         1 59Z      -0.146000
      7 P1           5.0100     1.6820     0.3110 p5         1 59Z       1.299500
      8 O2           4.2660     2.8160     1.0360 o          1 59Z      -0.933833
      9 O3           6.4010     1.3730     0.8700 o          1 59Z      -0.933833
     10 O5           4.9480     1.7780    -1.2140 o          1 59Z      -0.933833
     11 N10          2.5890     0.4850     0.6380 ns         1 59Z      -0.404900
     12 C12          1.6240    -0.4100     0.4230 c          1 59Z       0.586300
     13 O13          1.8220    -1.6210     0.3490 o          1 59Z      -0.658100
     14 C14          0.2840     0.1930     0.2050 cd         1 59Z      -0.096300
     15 N15         -0.8980    -0.4350     0.5030 na         1 59Z       0.036300
     16 C16         -1.9340     0.3550     0.0900 ca         1 59Z      -0.052200
     17 C18         -4.1560     1.2220    -0.3490 ca         1 59Z      -0.029000
     18 C19         -3.5620     2.4010    -0.9020 ca         1 59Z      -0.205000
     19 C23         -1.3830     1.5210    -0.4690 ca         1 59Z      -0.144800
     20 C30         -5.3920    -1.0710     0.6290 ca         1 59Z      -0.158000
     21 C32         -4.0210    -0.9880     0.6250 ca         1 59Z      -0.063000
     22 C34         -1.0170    -1.7470     1.0970 c3         1 59Z      -0.101400
     23 C37         -1.3930    -2.8600     0.0880 c          1 59Z       0.727000
     24 O38         -1.4080    -2.5590    -1.1130 o          1 59Z      -0.724000
     25 O39         -1.6390    -3.9570     0.6220 o          1 59Z      -0.724000
     26 H1           4.2390    -0.6770     0.1280 h1         1 59Z       0.017200
     27 H2           4.2160    -0.1340     1.7960 h1         1 59Z       0.017200
     28 H5          -6.1500     1.9340    -0.7080 ha         1 59Z       0.076000
     29 H6          -7.2590    -0.0890     0.1670 ha         1 59Z       0.071000
     30 H9           2.3590     1.4600     0.7650 hn         1 59Z       0.335500
     31 H10         -4.2180     3.1780    -1.2740 ha         1 59Z       0.073000
     32 H11         -5.8630    -1.9750     0.9920 ha         1 59Z       0.086000
     33 H12         -3.4800    -1.8450     0.9890 ha         1 59Z       0.147000
     34 H13         -0.0640    -2.0070     1.5490 h1         1 59Z       0.051700
     35 H14         -1.7290    -1.7030     1.9220 h1         1 59Z       0.051700
     36 H3          -1.7730     3.4400    -1.4030 ha         1 59Z       0.095000
     37 H4           0.7510     2.1020    -0.7680 ha         1 59Z       0.224000
@<TRIPOS>BOND
     1     1     7 1   
     2     1    11 1   
     3     1    26 1   
     4     1    27 1   
     5     2    16 ar  
     6     2    17 ar  
     7     2    21 ar  
     8     3    18 ar  
     9     3    19 ar  
    10     3    36 1   
    11     4    14 2   
    12     4    19 1   
    13     4    37 1   
    14     5     6 ar  
    15     5    17 ar  
    16     5    28 1   
    17     6    20 ar  
    18     6    29 1   
    19     7     8 1   
    20     7     9 1   
    21     7    10 1   
    22    11    12 1   
    23    11    30 1   
    24    12    13 2   
    25    12    14 1   
    26    14    15 1   
    27    15    16 1   
    28    15    22 1   
    29    16    19 ar  
    30    17    18 ar  
    31    18    31 1   
    32    20    21 ar  
    33    20    32 1   
    34    21    33 1   
    35    22    23 1   
    36    22    34 1   
    37    22    35 1   
    38    23    24 1   
    39    23    25 1   
@<TRIPOS>SUBSTRUCTURE
     1 59Z         1 TEMP              0 ****  ****    0 ROOT
