@<TRIPOS>MOLECULE
5A0
   47    50     1     0     0
SMALL
No Charge or Current Charge


@<TRIPOS>ATOM
      1 C4          -3.6800    -1.8480     0.1550 ca         1 5A0       0.152300
      2 C5          -2.4730    -1.1890     0.2400 ca         1 5A0      -0.222800
      3 C6          -1.2870    -1.9190     0.0520 ca         1 5A0       0.430900
      4 N1          -1.3470    -3.2470    -0.1890 nb         1 5A0      -0.281000
      5 N3          -3.7650    -3.1670    -0.0920 nb         1 5A0      -0.177000
      6 FAC         -5.7850     2.2790    -0.9770 f          1 5A0      -0.121500
      7 CAW         -4.7910     2.8260    -0.2400 c3         1 5A0       0.175300
      8 FAD         -5.2020     4.0600     0.1340 f          1 5A0      -0.121500
      9 CAS         -3.9860     0.5950     0.6780 cc         1 5A0      -0.100600
     10 SAQ         -5.0910    -0.7890     0.4220 ss         1 5A0      -0.065900
     11 CAF         -2.6660     0.2100     0.5540 cd         1 5A0      -0.136200
     12 C2          -2.5810    -3.8030    -0.2500 ca         1 5A0       0.171900
     13 NAY         -0.0140    -1.3150     0.1040 nh         1 5A0      -0.778300
     14 CAJ          0.3480    -0.2970    -0.9270 c6         1 5A0       0.206300
     15 CAH          1.5170     0.6290    -0.4670 c6         1 5A0       0.208300
     16 CAI          1.1820    -2.1070     0.5290 c6         1 5A0       0.206300
     17 CAG          2.3660    -1.2020     0.9970 c6         1 5A0       0.208300
     18 NAX          2.7240    -0.1180     0.0220 nh         1 5A0      -0.744600
     19 CAR          3.9170     0.5580     0.1750 c2         1 5A0       0.703100
     20 SAP          5.3580    -0.4640     0.2770 ss         1 5A0      -0.416200
     21 CAZ          6.3360     1.0260    -0.1670 c5         1 5A0       0.085000
     22 CAA          7.7210     0.9540     0.5170 c3         1 5A0      -0.078600
     23 CAB          6.5170     1.0550    -1.7060 c3         1 5A0      -0.078600
     24 CAK          5.4400     2.1970     0.3640 c5         1 5A0       0.122800
     25 NAM          4.0000     1.8380     0.1540 n2         1 5A0      -0.678900
     26 H1          -3.8900     2.9170    -0.8560 h2         1 5A0       0.063700
     27 H2          -3.7940     2.4920     1.6470 hc         1 5A0       0.079200
     28 H3          -5.4370     1.8780     1.5960 hc         1 5A0       0.079200
     29 H4          -1.8430     0.9040     0.7030 ha         1 5A0       0.202000
     30 H5          -2.6260    -4.8720    -0.4480 h5         1 5A0       0.049100
     31 H6           0.6550    -0.8060    -1.8530 h1         1 5A0       0.064200
     32 H7          -0.5160     0.3320    -1.1820 h1         1 5A0       0.064200
     33 H8           1.7890     1.2660    -1.3210 h1         1 5A0       0.063700
     34 H9           1.1490     1.2990     0.3250 h1         1 5A0       0.063700
     35 H10          0.9200    -2.7830     1.3560 h1         1 5A0       0.064200
     36 H11          1.5300    -2.7330    -0.3060 h1         1 5A0       0.064200
     37 H12          2.1040    -0.7520     1.9650 h1         1 5A0       0.063700
     38 H13          3.2240    -1.8640     1.1800 h1         1 5A0       0.063700
     39 H16          8.2890     0.0800     0.1780 hc         1 5A0       0.047200
     40 H17          8.3180     1.8480     0.2960 hc         1 5A0       0.047200
     41 H18          7.6220     0.8820     1.6070 hc         1 5A0       0.047200
     42 H19          5.5510     1.0690    -2.2250 hc         1 5A0       0.047200
     43 H20          7.0740     1.9450    -2.0210 hc         1 5A0       0.047200
     44 H21          7.0680     0.1750    -2.0580 hc         1 5A0       0.047200
     45 H22          5.6160     2.3770     1.4340 h1         1 5A0       0.067200
     46 H23          5.6830     3.1320    -0.1600 h1         1 5A0       0.067200
     47 CAL         -4.5150     1.9660     1.0090 c3         1 5A0      -0.072200
@<TRIPOS>BOND
     1     1     2 ar  
     2     1     5 ar  
     3     1    10 1   
     4     2     3 ar  
     5     2    11 1   
     6     3     4 ar  
     7     3    13 1   
     8     4    12 ar  
     9     5    12 ar  
    10     6     7 1   
    11     7     8 1   
    12     7    26 1   
    13     7    47 1   
    14     9    10 1   
    15     9    11 2   
    16     9    47 1   
    17    11    29 1   
    18    12    30 1   
    19    13    14 1   
    20    13    16 1   
    21    14    15 1   
    22    14    31 1   
    23    14    32 1   
    24    15    18 1   
    25    15    33 1   
    26    15    34 1   
    27    16    17 1   
    28    16    35 1   
    29    16    36 1   
    30    17    18 1   
    31    17    37 1   
    32    17    38 1   
    33    18    19 1   
    34    19    20 1   
    35    19    25 2   
    36    20    21 1   
    37    21    22 1   
    38    21    23 1   
    39    21    24 1   
    40    22    39 1   
    41    22    40 1   
    42    22    41 1   
    43    23    42 1   
    44    23    43 1   
    45    23    44 1   
    46    24    25 1   
    47    24    45 1   
    48    24    46 1   
    49    27    47 1   
    50    28    47 1   
@<TRIPOS>SUBSTRUCTURE
     1 5A0         1 TEMP              0 ****  ****    0 ROOT
