@<TRIPOS>MOLECULE
5A0
   47    50     1     0     0
SMALL
abcg2


@<TRIPOS>ATOM
      1 C4          -3.5140    -1.7610     0.1560 ca         1 5A0       0.152300
      2 C5          -2.3310    -1.0180     0.2000 ca         1 5A0      -0.222800
      3 C6          -1.1420    -1.7780     0.0200 ca         1 5A0       0.430900
      4 N1          -1.2340    -3.1040    -0.0590 nb         1 5A0      -0.281000
      5 N3          -3.6020    -3.0800     0.0140 nb         1 5A0      -0.177000
      6 FAC         -6.1690     1.8130    -0.7520 f          1 5A0      -0.121500
      7 CAW         -5.1550     2.6030    -0.2920 c3         1 5A0       0.175300
      8 FAD         -5.7180     3.7950     0.0510 f          1 5A0      -0.121500
      9 CAS         -3.9050     0.6450     0.6130 cc         1 5A0      -0.100600
     10 SAQ         -4.9050    -0.7590     0.3830 ss         1 5A0      -0.065900
     11 CAF         -2.5870     0.3610     0.4950 cd         1 5A0      -0.136200
     12 C2          -2.4300    -3.6780    -0.0510 ca         1 5A0       0.171900
     13 NAY          0.0950    -1.2300    -0.0410 nh         1 5A0      -0.778300
     14 CAJ          0.3760     0.0380    -0.6940 c6         1 5A0       0.206300
     15 CAH          1.4430     0.8030     0.0650 c6         1 5A0       0.208300
     16 CAI          1.2800    -2.0660     0.0350 c6         1 5A0       0.206300
     17 CAG          2.3750    -1.3290     0.7900 c6         1 5A0       0.208300
     18 NAX          2.6260    -0.0270     0.2040 nh         1 5A0      -0.744600
     19 CAR          3.8450     0.5630     0.2100 c2         1 5A0       0.703100
     20 SAP          5.2830    -0.4300     0.5710 ss         1 5A0      -0.416200
     21 CAZ          6.3380     0.9020    -0.1370 c5         1 5A0       0.085000
     22 CAA          7.6510     1.0030     0.6180 c3         1 5A0      -0.078600
     23 CAB          6.5700     0.6190    -1.6150 c3         1 5A0      -0.078600
     24 CAK          5.4480     2.1400     0.0680 c5         1 5A0       0.122800
     25 NAM          4.0540     1.7910    -0.0570 n2         1 5A0      -0.678900
     26 H1          -4.4540     2.7710    -1.1100 h2         1 5A0       0.063700
     27 H2          -3.7260     2.6410     1.2760 hc         1 5A0       0.079200
     28 H3          -5.2570     1.8900     1.7190 hc         1 5A0       0.079200
     29 H4          -1.8340     1.1180     0.6590 ha         1 5A0       0.202000
     30 H5          -2.4390    -4.7600    -0.1210 h5         1 5A0       0.049100
     31 H6           0.7310    -0.1610    -1.7120 h1         1 5A0       0.064200
     32 H7          -0.5190     0.6440    -0.7850 h1         1 5A0       0.064200
     33 H8           1.7040     1.7030    -0.4860 h1         1 5A0       0.063700
     34 H9           1.0650     1.1050     1.0490 h1         1 5A0       0.063700
     35 H10          1.0500    -2.9870     0.5620 h1         1 5A0       0.064200
     36 H11          1.6300    -2.3310    -0.9690 h1         1 5A0       0.064200
     37 H12          2.0850    -1.2260     1.8430 h1         1 5A0       0.063700
     38 H13          3.2750    -1.9420     0.7540 h1         1 5A0       0.063700
     39 H16          8.2560     0.1030     0.5050 hc         1 5A0       0.047200
     40 H17          8.2320     1.8390     0.2230 hc         1 5A0       0.047200
     41 H18          7.4890     1.1780     1.6820 hc         1 5A0       0.047200
     42 H19          5.6330     0.5870    -2.1720 hc         1 5A0       0.047200
     43 H20          7.1900     1.4060    -2.0490 hc         1 5A0       0.047200
     44 H21          7.0850    -0.3310    -1.7610 hc         1 5A0       0.047200
     45 H22          5.6330     2.5660     1.0620 h1         1 5A0       0.067200
     46 H23          5.7200     2.9100    -0.6590 h1         1 5A0       0.067200
     47 CAL         -4.5130     1.9720     0.9220 c3         1 5A0      -0.072200
@<TRIPOS>BOND
     1     1     2 ar  
     2     1     5 ar  
     3     1    10 1   
     4     2     3 ar  
     5     2    11 1   
     6     3     4 ar  
     7     3    13 1   
     8     4    12 ar  
     9     5    12 ar  
    10     6     7 1   
    11     7     8 1   
    12     7    26 1   
    13     7    47 1   
    14     9    10 1   
    15     9    11 2   
    16     9    47 1   
    17    11    29 1   
    18    12    30 1   
    19    13    14 1   
    20    13    16 1   
    21    14    15 1   
    22    14    31 1   
    23    14    32 1   
    24    15    18 1   
    25    15    33 1   
    26    15    34 1   
    27    16    17 1   
    28    16    35 1   
    29    16    36 1   
    30    17    18 1   
    31    17    37 1   
    32    17    38 1   
    33    18    19 1   
    34    19    20 1   
    35    19    25 2   
    36    20    21 1   
    37    21    22 1   
    38    21    23 1   
    39    21    24 1   
    40    22    39 1   
    41    22    40 1   
    42    22    41 1   
    43    23    42 1   
    44    23    43 1   
    45    23    44 1   
    46    24    25 1   
    47    24    45 1   
    48    24    46 1   
    49    27    47 1   
    50    28    47 1   
@<TRIPOS>SUBSTRUCTURE
     1 5A0         1 TEMP              0 ****  ****    0 ROOT
