@<TRIPOS>MOLECULE
5A1
   47    50     1     0     0
SMALL
bcc


@<TRIPOS>ATOM
      1 C4           2.8960     2.2210    -0.1850 ca         1 5A1       0.490600
      2 C5           1.7120     1.4970    -0.0130 ca         1 5A1      -0.376400
      3 C6           0.5150     2.2500    -0.1950 ca         1 5A1       0.777200
      4 N1           0.6150     3.5680    -0.3710 nb         1 5A1      -0.810000
      5 N3           2.9840     3.5220    -0.4400 nb         1 5A1      -0.713000
      6 FAC          2.7760    -2.7190    -0.7510 f          1 5A1      -0.215633
      7 CBB          3.9990    -2.4060    -0.3350 c3         1 5A1       0.628900
      8 FAD          4.6190    -3.5240     0.0250 f          1 5A1      -0.215633
      9 FAE          4.6660    -1.8610    -1.3480 f          1 5A1      -0.215633
     10 FAF          3.2230    -2.0060     1.8260 f          1 5A1      -0.203800
     11 FAG          5.1840    -1.2050     1.2730 f          1 5A1      -0.203800
     12 CAU          3.2970    -0.1130     0.4590 cc         1 5A1      -0.226600
     13 SAS          4.2980     1.2430     0.0620 ss         1 5A1      -0.008900
     14 CAI          1.9720     0.1530     0.3950 cd         1 5A1      -0.016200
     15 C2           1.8120     4.1250    -0.4780 ca         1 5A1       0.712900
     16 NAZ         -0.7200     1.7130    -0.1760 nh         1 5A1      -0.778300
     17 CAM         -1.9070     2.5400    -0.0360 c6         1 5A1       0.201300
     18 CAK         -2.8650     1.8700     0.9380 c6         1 5A1       0.214300
     19 CAL         -1.0390     0.3740    -0.6380 c6         1 5A1       0.201300
     20 CAJ         -1.9790    -0.3180     0.3340 c6         1 5A1       0.214300
     21 NAY         -3.1510     0.5050     0.5370 nh         1 5A1      -0.762600
     22 CAT         -4.4250     0.0640     0.4520 c2         1 5A1       0.715100
     23 SAR         -4.7160    -1.6780     0.2000 ss         1 5A1      -0.376300
     24 CBA         -6.4730    -1.2990    -0.1860 c5         1 5A1       0.038100
     25 CAA         -6.6270    -1.1250    -1.6910 c3         1 5A1      -0.078100
     26 CAB         -7.3800    -2.4000     0.3380 c3         1 5A1      -0.078100
     27 CAN         -6.6740     0.0330     0.5600 c5         1 5A1       0.124800
     28 NAO         -5.4570     0.8040     0.5610 n2         1 5A1      -0.679900
     29 H2           1.2200    -0.5710     0.6700 ha         1 5A1       0.163000
     30 H3           1.8240     5.1980    -0.6310 h5         1 5A1       0.052100
     31 H4          -1.6330     3.5200     0.3430 h1         1 5A1       0.067950
     32 H5          -2.3890     2.6770    -1.0100 h1         1 5A1       0.067950
     33 H6          -2.4210     1.8710     1.9390 h1         1 5A1       0.068950
     34 H7          -3.7940     2.4320     0.9800 h1         1 5A1       0.068950
     35 H8          -1.5330     0.4560    -1.6130 h1         1 5A1       0.067950
     36 H9          -0.1440    -0.2180    -0.7950 h1         1 5A1       0.067950
     37 H10         -2.2550    -1.2850    -0.0820 h1         1 5A1       0.068950
     38 H11         -1.4690    -0.4960     1.2880 h1         1 5A1       0.068950
     39 H12         -6.3670    -2.0400    -2.2240 hc         1 5A1       0.047200
     40 H13         -7.6630    -0.8780    -1.9310 hc         1 5A1       0.047200
     41 H14         -5.9950    -0.3200    -2.0680 hc         1 5A1       0.047200
     42 H15         -7.2630    -2.5380     1.4120 hc         1 5A1       0.047200
     43 H16         -8.4220    -2.1390     0.1400 hc         1 5A1       0.047200
     44 H17         -7.1830    -3.3530    -0.1550 hc         1 5A1       0.047200
     45 H18         -7.4860     0.5960     0.0890 h1         1 5A1       0.067700
     46 H19         -6.9890    -0.1670     1.5920 h1         1 5A1       0.067700
     47 CBC          3.9200    -1.4080     0.8370 c3         1 5A1       0.460800
@<TRIPOS>BOND
     1     1     2 ar  
     2     1     5 ar  
     3     1    13 1   
     4     2     3 ar  
     5     2    14 1   
     6     3     4 ar  
     7     3    16 1   
     8     4    15 ar  
     9     5    15 ar  
    10     6     7 1   
    11     7     8 1   
    12     7     9 1   
    13     7    47 1   
    14    10    47 1   
    15    11    47 1   
    16    12    13 1   
    17    12    14 2   
    18    12    47 1   
    19    14    29 1   
    20    15    30 1   
    21    16    17 1   
    22    16    19 1   
    23    17    18 1   
    24    17    31 1   
    25    17    32 1   
    26    18    21 1   
    27    18    33 1   
    28    18    34 1   
    29    19    20 1   
    30    19    35 1   
    31    19    36 1   
    32    20    21 1   
    33    20    37 1   
    34    20    38 1   
    35    21    22 1   
    36    22    23 1   
    37    22    28 2   
    38    23    24 1   
    39    24    25 1   
    40    24    26 1   
    41    24    27 1   
    42    25    39 1   
    43    25    40 1   
    44    25    41 1   
    45    26    42 1   
    46    26    43 1   
    47    26    44 1   
    48    27    28 1   
    49    27    45 1   
    50    27    46 1   
@<TRIPOS>SUBSTRUCTURE
     1 5A1         1 TEMP              0 ****  ****    0 ROOT
