@<TRIPOS>MOLECULE
5A1
   47    50     1     0     0
SMALL
No Charge or Current Charge


@<TRIPOS>ATOM
      1 C4           3.0960     2.2050    -0.1250 ca         1 5A1       0.162300
      2 C5           1.8630     1.6170     0.0340 ca         1 5A1      -0.245800
      3 C6           0.7100     2.3760    -0.2230 ca         1 5A1       0.448900
      4 N1           0.8260     3.6670    -0.6000 nb         1 5A1      -0.284000
      5 N3           3.2390     3.4860    -0.5080 nb         1 5A1      -0.187000
      6 FAC          2.9650    -2.6900    -0.8570 f          1 5A1      -0.094333
      7 CBB          4.0630    -2.5170    -0.0830 c3         1 5A1       0.265000
      8 FAD          4.4630    -3.7360     0.3510 f          1 5A1      -0.094333
      9 FAE          5.0370    -2.0200    -0.8810 f          1 5A1      -0.094333
     10 FAF          2.8270    -2.1240     1.9030 f          1 5A1      -0.082500
     11 FAG          4.8760    -1.4320     1.8650 f          1 5A1      -0.082500
     12 CAU          3.2910    -0.1880     0.6470 cc         1 5A1      -0.226600
     13 SAS          4.4580     1.1110     0.2380 ss         1 5A1      -0.008900
     14 CAI          1.9880     0.2500     0.4870 cd         1 5A1      -0.066200
     15 C2           2.0840     4.1560    -0.7240 ca         1 5A1       0.186900
     16 NAZ         -0.5850     1.8350    -0.1030 nh         1 5A1      -0.778300
     17 CAM         -1.7430     2.7120     0.2510 c6         1 5A1       0.201300
     18 CAK         -2.9520     1.9040     0.8170 c6         1 5A1       0.214300
     19 CAL         -1.0020     0.7590    -1.0490 c6         1 5A1       0.201300
     20 CAJ         -2.1960    -0.0880    -0.5060 c6         1 5A1       0.214300
     21 NAY         -3.3640     0.7290    -0.0280 nh         1 5A1      -0.762600
     22 CAT         -4.5970     0.1430     0.2040 c2         1 5A1       0.715100
     23 SAR         -4.6950    -1.6210     0.0480 ss         1 5A1      -0.424200
     24 CBA         -6.5170    -1.4220    -0.0400 c5         1 5A1       0.086000
     25 CAA         -6.9270    -1.2880    -1.5290 c3         1 5A1      -0.078100
     26 CAB         -7.2010    -2.6650     0.5750 c3         1 5A1      -0.078100
     27 CAN         -6.7570    -0.1090     0.7810 c5         1 5A1       0.124800
     28 NAO         -5.6250     0.8400     0.5240 n2         1 5A1      -0.679900
     29 H2           1.1290    -0.3810     0.7040 ha         1 5A1       0.213000
     30 H3           2.1740     5.1970    -1.0310 h5         1 5A1       0.052100
     31 H4          -1.4460     3.4570     1.0050 h1         1 5A1       0.067950
     32 H5          -2.0790     3.2660    -0.6380 h1         1 5A1       0.067950
     33 H6          -2.7010     1.5560     1.8290 h1         1 5A1       0.068950
     34 H7          -3.7860     2.6120     0.9270 h1         1 5A1       0.068950
     35 H8          -1.3060     1.2090    -2.0060 h1         1 5A1       0.067950
     36 H9          -0.1650     0.0820    -1.2710 h1         1 5A1       0.067950
     37 H10         -2.5050    -0.7540    -1.3250 h1         1 5A1       0.068950
     38 H11         -1.8310    -0.7290     0.3100 h1         1 5A1       0.068950
     39 H12         -6.6600    -2.1860    -2.0980 hc         1 5A1       0.047200
     40 H13         -8.0090    -1.1390    -1.6290 hc         1 5A1       0.047200
     41 H14         -6.4310    -0.4350    -2.0080 hc         1 5A1       0.047200
     42 H15         -6.8890    -2.8140     1.6160 hc         1 5A1       0.047200
     43 H16         -8.2930    -2.5610     0.5670 hc         1 5A1       0.047200
     44 H17         -6.9470    -3.5760     0.0200 hc         1 5A1       0.047200
     45 H18         -7.7150     0.3490     0.4970 h1         1 5A1       0.067700
     46 H19         -6.8140    -0.3220     1.8580 h1         1 5A1       0.067700
     47 CBC          3.7620    -1.5540     1.1040 c3         1 5A1       0.218200
@<TRIPOS>BOND
     1     1     2 ar  
     2     1     5 ar  
     3     1    13 1   
     4     2     3 ar  
     5     2    14 1   
     6     3     4 ar  
     7     3    16 1   
     8     4    15 ar  
     9     5    15 ar  
    10     6     7 1   
    11     7     8 1   
    12     7     9 1   
    13     7    47 1   
    14    10    47 1   
    15    11    47 1   
    16    12    13 1   
    17    12    14 2   
    18    12    47 1   
    19    14    29 1   
    20    15    30 1   
    21    16    17 1   
    22    16    19 1   
    23    17    18 1   
    24    17    31 1   
    25    17    32 1   
    26    18    21 1   
    27    18    33 1   
    28    18    34 1   
    29    19    20 1   
    30    19    35 1   
    31    19    36 1   
    32    20    21 1   
    33    20    37 1   
    34    20    38 1   
    35    21    22 1   
    36    22    23 1   
    37    22    28 2   
    38    23    24 1   
    39    24    25 1   
    40    24    26 1   
    41    24    27 1   
    42    25    39 1   
    43    25    40 1   
    44    25    41 1   
    45    26    42 1   
    46    26    43 1   
    47    26    44 1   
    48    27    28 1   
    49    27    45 1   
    50    27    46 1   
@<TRIPOS>SUBSTRUCTURE
     1 5A1         1 TEMP              0 ****  ****    0 ROOT
