@<TRIPOS>MOLECULE
5A2
   54    54     1     0     0
SMALL
bcc


@<TRIPOS>ATOM
      1 C1          -0.1260     2.2050     0.6790 c6         1 5A2       0.195100
      2 C2           1.1450     1.5790     0.0980 c6         1 5A2       0.189100
      3 C3           1.1380     0.0890     0.4390 c6         1 5A2       0.196100
      4 C4          -0.0840    -0.6170    -0.1580 c6         1 5A2       0.208100
      5 C5          -1.3760     0.0890     0.2890 c6         1 5A2       0.196100
      6 C6          -1.3690     1.6040     0.0140 c6         1 5A2       0.189100
      7 O55         -4.8470    -5.2090    -1.1150 o          1 5A2      -1.027333
      8 PB5         -5.2520    -3.8880    -0.4290 p5         1 5A2       1.216700
      9 O65         -6.3730    -3.1640    -1.1910 o          1 5A2      -1.027333
     10 O75         -5.5500    -4.0670     1.0680 o          1 5A2      -1.027333
     11 C5B         -3.7330    -2.8250    -0.5400 c3         1 5A2      -0.500300
     12 O35         -3.2860    -1.5560     1.8790 o          1 5A2      -0.929750
     13 O25         -4.9790    -0.5260     0.2280 o          1 5A2      -0.929750
     14 O15         -2.4770    -0.5080    -0.3440 os         1 5A2      -0.556200
     15 O14         -0.1290    -1.9570     0.2420 os         1 5A2      -0.590200
     16 PA4          0.1680    -3.2600    -0.7880 p5         1 5A2       1.338900
     17 O34         -0.3290    -2.8460    -2.1730 o          1 5A2      -0.981833
     18 O44          1.6700    -3.5500    -0.7580 o          1 5A2      -0.981833
     19 O24         -0.6380    -4.3750    -0.1100 o          1 5A2      -0.981833
     20 O16         -2.5420     2.1590     0.5300 os         1 5A2      -0.570700
     21 PA6         -3.5570     3.1280    -0.4010 p5         1 5A2       1.349900
     22 O36         -3.7470     2.4240    -1.7450 o          1 5A2      -0.993500
     23 O46         -4.8030     3.1850     0.4860 o          1 5A2      -0.993500
     24 O26         -2.8820     4.4920    -0.5590 o          1 5A2      -0.993500
     25 O11         -0.1130     3.5930     0.5720 os         1 5A2      -0.526200
     26 PA1          0.1800     4.4950     1.9500 p5         1 5A2       1.337900
     27 O41         -0.9820     4.2300     2.9100 o          1 5A2      -1.002167
     28 O21          1.5200     4.0170     2.5200 o          1 5A2      -1.002167
     29 O31          0.2150     5.9210     1.3970 o          1 5A2      -1.002167
     30 O12          1.1830     1.7610    -1.2950 os         1 5A2      -0.570700
     31 PA2          2.4960     2.3880    -2.1410 p5         1 5A2       1.349900
     32 O42          3.4090     1.2180    -2.5110 o          1 5A2      -0.993500
     33 O22          1.7840     2.9750    -3.3680 o          1 5A2      -0.993500
     34 O32          3.1570     3.4370    -1.2530 o          1 5A2      -0.993500
     35 O13          2.2930    -0.5400    -0.0320 os         1 5A2      -0.556200
     36 PA3          3.6140    -0.7840     0.9210 p5         1 5A2       1.365100
     37 O23          3.2870    -1.7910     2.0030 o          1 5A2      -0.929750
     38 O33          4.1390     0.5460     1.4190 o          1 5A2      -0.929750
     39 C3B          4.6600    -1.4760    -0.3900 c3         1 5A2      -0.500300
     40 PB3          6.4500    -1.8290    -0.0340 p5         1 5A2       1.216700
     41 O53          6.4840    -2.6860     1.2400 o          1 5A2      -1.027333
     42 O63          6.9350    -2.5950    -1.2810 o          1 5A2      -1.027333
     43 O73          7.1440    -0.4690     0.1280 o          1 5A2      -1.027333
     44 H1          -0.1700     1.9050     1.7410 h1         1 5A2      -0.031300
     45 H2           2.0080     2.0510     0.5800 h1         1 5A2       0.053200
     46 H3           1.0660     0.0090     1.5370 h1         1 5A2      -0.020800
     47 H4          -0.0160    -0.5430    -1.2500 h1         1 5A2       0.057700
     48 H5          -1.4620    -0.0400     1.3790 h1         1 5A2      -0.020800
     49 H6          -1.2980     1.7650    -1.0700 h1         1 5A2       0.053200
     50 H9          -2.8410    -3.4030    -0.2850 hc         1 5A2       0.090450
     51 H10         -3.5850    -2.5420    -1.5890 hc         1 5A2       0.090450
     52 H21          4.1530    -2.3930    -0.7140 hc         1 5A2       0.090450
     53 H22          4.5840    -0.7800    -1.2330 hc         1 5A2       0.090450
     54 PA5         -3.7020    -1.3010     0.4440 p5         1 5A2       1.365100
@<TRIPOS>BOND
     1     1     2 1   
     2     1     6 1   
     3     1    25 1   
     4     1    44 1   
     5     2     3 1   
     6     2    30 1   
     7     2    45 1   
     8     3     4 1   
     9     3    35 1   
    10     3    46 1   
    11     4     5 1   
    12     4    15 1   
    13     4    47 1   
    14     5     6 1   
    15     5    14 1   
    16     5    48 1   
    17     6    20 1   
    18     6    49 1   
    19     7     8 1   
    20     8     9 1   
    21     8    10 1   
    22     8    11 1   
    23    11    50 1   
    24    11    51 1   
    25    11    54 1   
    26    12    54 1   
    27    13    54 1   
    28    14    54 1   
    29    15    16 1   
    30    16    17 1   
    31    16    18 1   
    32    16    19 1   
    33    20    21 1   
    34    21    22 1   
    35    21    23 1   
    36    21    24 1   
    37    25    26 1   
    38    26    27 1   
    39    26    28 1   
    40    26    29 1   
    41    30    31 1   
    42    31    32 1   
    43    31    33 1   
    44    31    34 1   
    45    35    36 1   
    46    36    37 1   
    47    36    38 1   
    48    36    39 1   
    49    39    40 1   
    50    39    52 1   
    51    39    53 1   
    52    40    41 1   
    53    40    42 1   
    54    40    43 1   
@<TRIPOS>SUBSTRUCTURE
     1 5A2         1 TEMP              0 ****  ****    0 ROOT
