@<TRIPOS>MOLECULE
5A2
   54    54     1     0     0
SMALL
No Charge or Current Charge


@<TRIPOS>ATOM
      1 C1          -0.0560     2.0210     0.6090 c6         1 5A2       0.218300
      2 C2           1.2650     1.4520    -0.0350 c6         1 5A2       0.212300
      3 C3           1.3000    -0.0820     0.2840 c6         1 5A2       0.219300
      4 C4           0.0860    -0.8040    -0.4200 c6         1 5A2       0.231300
      5 C5          -1.2610    -0.1850     0.1450 c6         1 5A2       0.219300
      6 C6          -1.3360     1.3860    -0.0720 c6         1 5A2       0.212300
      7 O55         -5.6120    -3.8940    -1.8140 o          1 5A2      -1.027333
      8 PB5         -5.4100    -2.7400    -0.8940 p5         1 5A2       1.374500
      9 O65         -5.3500    -1.4880    -1.6870 o          1 5A2      -1.027333
     10 O75         -6.5420    -2.7430     0.0720 o          1 5A2      -1.027333
     11 C5B         -3.9280    -3.1020    -0.0570 c3         1 5A2      -0.815900
     12 O35         -2.5190    -2.2540     1.9050 o          1 5A2      -0.929750
     13 O25         -4.4460    -0.8210     1.4070 o          1 5A2      -0.929750
     14 O15         -2.4500    -0.9140    -0.3000 os         1 5A2      -0.579400
     15 O14          0.1380    -2.2520    -0.2460 os         1 5A2      -0.613400
     16 PA4          0.3250    -3.2110    -1.5350 p5         1 5A2       1.338900
     17 O34         -0.7460    -2.9720    -2.5390 o          1 5A2      -0.981833
     18 O44          1.6440    -2.9900    -2.1860 o          1 5A2      -0.981833
     19 O24          0.2580    -4.6320    -1.0900 o          1 5A2      -0.981833
     20 O16         -2.5820     1.9290     0.4610 os         1 5A2      -0.593900
     21 PA6         -3.5160     2.9120    -0.4270 p5         1 5A2       1.349900
     22 O36         -3.7800     2.3280    -1.7720 o          1 5A2      -0.993500
     23 O46         -4.8200     3.1030     0.2710 o          1 5A2      -0.993500
     24 O26         -2.9030     4.2570    -0.6020 o          1 5A2      -0.993500
     25 O11         -0.0650     3.4640     0.7510 os         1 5A2      -0.549400
     26 PA1          0.4090     4.1310     2.1480 p5         1 5A2       1.337900
     27 O41         -0.5070     3.7470     3.2580 o          1 5A2      -1.002167
     28 O21          1.7910     3.7050     2.4990 o          1 5A2      -1.002167
     29 O31          0.3970     5.6180     2.0310 o          1 5A2      -1.002167
     30 O12          1.3610     1.6420    -1.4810 os         1 5A2      -0.593900
     31 PA2          1.9520     2.9650    -2.1980 p5         1 5A2       1.349900
     32 O42          3.2230     3.4060    -1.5590 o          1 5A2      -0.993500
     33 O22          2.2460     2.6260    -3.6190 o          1 5A2      -0.993500
     34 O32          0.9700     4.0810    -2.2020 o          1 5A2      -0.993500
     35 O13          2.5980    -0.7000     0.0390 os         1 5A2      -0.579400
     36 PA3          3.6960    -0.7000     1.2330 p5         1 5A2       1.522900
     37 O23          3.0640    -1.1560     2.5120 o          1 5A2      -0.929750
     38 O33          4.3970     0.6040     1.4230 o          1 5A2      -0.929750
     39 C3B          4.7180    -2.0710     0.7830 c3         1 5A2      -0.815900
     40 PB3          6.0040    -1.5040    -0.2450 p5         1 5A2       1.374500
     41 O53          7.0590    -0.8740     0.5930 o          1 5A2      -1.027333
     42 O63          6.5850    -2.7450    -0.8280 o          1 5A2      -1.027333
     43 O73          5.5460    -0.6130    -1.3400 o          1 5A2      -1.027333
     44 H1          -0.0670     1.6250     1.6360 h1         1 5A2      -0.031300
     45 H2           2.1290     1.9290     0.4470 h1         1 5A2       0.053200
     46 H3           1.1070    -0.1720     1.3620 h1         1 5A2      -0.020800
     47 H4           0.1290    -0.5790    -1.4960 h1         1 5A2       0.057700
     48 H5          -1.1950    -0.3000     1.2360 h1         1 5A2      -0.020800
     49 H6          -1.2890     1.5880    -1.1520 h1         1 5A2       0.053200
     50 H9          -4.1010    -3.9080     0.6510 hc         1 5A2       0.090450
     51 H10         -3.1600    -3.3870    -0.7710 hc         1 5A2       0.090450
     52 H21          5.1380    -2.5170     1.6800 hc         1 5A2       0.090450
     53 H22          4.1070    -2.7950     0.2490 hc         1 5A2       0.090450
     54 PA5         -3.3660    -1.6690     0.8160 p5         1 5A2       1.522900
@<TRIPOS>BOND
     1     1     2 1   
     2     1     6 1   
     3     1    25 1   
     4     1    44 1   
     5     2     3 1   
     6     2    30 1   
     7     2    45 1   
     8     3     4 1   
     9     3    35 1   
    10     3    46 1   
    11     4     5 1   
    12     4    15 1   
    13     4    47 1   
    14     5     6 1   
    15     5    14 1   
    16     5    48 1   
    17     6    20 1   
    18     6    49 1   
    19     7     8 1   
    20     8     9 1   
    21     8    10 1   
    22     8    11 1   
    23    11    50 1   
    24    11    51 1   
    25    11    54 1   
    26    12    54 1   
    27    13    54 1   
    28    14    54 1   
    29    15    16 1   
    30    16    17 1   
    31    16    18 1   
    32    16    19 1   
    33    20    21 1   
    34    21    22 1   
    35    21    23 1   
    36    21    24 1   
    37    25    26 1   
    38    26    27 1   
    39    26    28 1   
    40    26    29 1   
    41    30    31 1   
    42    31    32 1   
    43    31    33 1   
    44    31    34 1   
    45    35    36 1   
    46    36    37 1   
    47    36    38 1   
    48    36    39 1   
    49    39    40 1   
    50    39    52 1   
    51    39    53 1   
    52    40    41 1   
    53    40    42 1   
    54    40    43 1   
@<TRIPOS>SUBSTRUCTURE
     1 5A2         1 TEMP              0 ****  ****    0 ROOT
