@<TRIPOS>MOLECULE
5A3
   48    48     1     0     0
SMALL
No Charge or Current Charge


@<TRIPOS>ATOM
      1 O31         -3.3140    -1.7170     2.9850 o          1 5A3      -1.001333
      2 C2          -2.0820     0.0240     0.2050 c6         1 5A3       0.198300
      3 C1          -1.2700    -1.2540     0.6250 c6         1 5A3       0.215800
      4 C4           0.1000     1.0820    -0.6840 c6         1 5A3       0.228300
      5 C5           0.8990    -0.2340    -0.3000 c6         1 5A3       0.216300
      6 C6          -0.0740    -1.4850    -0.3800 c6         1 5A3       0.228300
      7 C3          -1.1120     1.2570     0.3150 c6         1 5A3       0.215800
      8 O11         -2.1130    -2.4200     0.8330 os         1 5A3      -0.553900
      9 O75          5.3630    -0.0290     2.2700 o          1 5A3      -1.024167
     10 PB5          4.2880     0.8670     1.7630 p5         1 5A3       1.380500
     11 O55          2.9810     0.6150     2.4200 o          1 5A3      -1.024167
     12 O65          4.7100     2.2680     2.0430 o          1 5A3      -1.024167
     13 CB5          4.2140     0.7670     0.0200 c3         1 5A3      -0.806400
     14 O25          4.4320    -1.2550    -1.5720 o          1 5A3      -0.924500
     15 O35          3.4770    -1.8640     0.6100 o          1 5A3      -0.924500
     16 O15          2.1060    -0.3960    -1.0930 os         1 5A3      -0.597400
     17 O16          0.6010    -2.7570    -0.1580 os         1 5A3      -0.594400
     18 PA6          0.5860    -3.8910    -1.3140 p5         1 5A3       1.347900
     19 O46         -0.8010    -4.3370    -1.6210 o          1 5A3      -0.993833
     20 O36          1.2110    -3.3870    -2.5680 o          1 5A3      -0.993833
     21 O26          1.3580    -5.0780    -0.8480 o          1 5A3      -0.993833
     22 PA1         -2.5660    -2.8260     2.3310 p5         1 5A3       1.334900
     23 O41         -1.3820    -3.1690     3.1690 o          1 5A3      -1.001333
     24 O21         -3.4540    -4.0230     2.2780 o          1 5A3      -1.001333
     25 O12         -2.6120    -0.1100    -1.1510 os         1 5A3      -0.594400
     26 PA2         -4.1930    -0.0660    -1.4890 p5         1 5A3       1.358900
     27 O42         -4.7960     1.2440    -1.1210 o          1 5A3      -1.004500
     28 O22         -4.3630    -0.2510    -2.9580 o          1 5A3      -1.004500
     29 O32         -4.9320    -1.1600    -0.8010 o          1 5A3      -1.004500
     30 O13         -1.8030     2.5310     0.1970 os         1 5A3      -0.553900
     31 PA3         -2.2420     3.3390     1.5270 p5         1 5A3       1.334900
     32 O43         -2.9840     4.5740     1.1400 o          1 5A3      -1.001333
     33 O33         -3.1280     2.5130     2.3920 o          1 5A3      -1.001333
     34 O23         -1.0470     3.7520     2.3160 o          1 5A3      -1.001333
     35 O14          0.9530     2.2640    -0.7340 os         1 5A3      -0.594400
     36 PA4          1.1040     3.0920    -2.1170 p5         1 5A3       1.347900
     37 O24          2.0170     4.2500    -1.8980 o          1 5A3      -0.993833
     38 O44          1.6760     2.2420    -3.1980 o          1 5A3      -0.993833
     39 O34         -0.2080     3.6250    -2.5780 o          1 5A3      -0.993833
     40 H1          -2.9140     0.1630     0.9090 h1         1 5A3       0.059700
     41 H2          -0.8070    -1.0180     1.5950 h1         1 5A3      -0.016800
     42 H3          -0.3180     0.9220    -1.6890 h1         1 5A3       0.039700
     43 H4           1.2010    -0.1330     0.7490 h1         1 5A3       0.012700
     44 H5          -0.4930    -1.4990    -1.3970 h1         1 5A3       0.039700
     45 H6          -0.6800     1.2200     1.3260 h1         1 5A3      -0.016800
     46 H9           3.5770     1.5600    -0.3650 hc         1 5A3       0.069700
     47 H10          5.2170     0.8750    -0.3870 hc         1 5A3       0.069700
     48 PA5          3.5420    -0.8120    -0.4490 p5         1 5A3       1.531400
@<TRIPOS>BOND
     1     1    22 1   
     2     2     3 1   
     3     2     7 1   
     4     2    25 1   
     5     2    40 1   
     6     3     6 1   
     7     3     8 1   
     8     3    41 1   
     9     4     5 1   
    10     4     7 1   
    11     4    35 1   
    12     4    42 1   
    13     5     6 1   
    14     5    16 1   
    15     5    43 1   
    16     6    17 1   
    17     6    44 1   
    18     7    30 1   
    19     7    45 1   
    20     8    22 1   
    21     9    10 1   
    22    10    11 1   
    23    10    12 1   
    24    10    13 1   
    25    13    46 1   
    26    13    47 1   
    27    13    48 1   
    28    14    48 1   
    29    15    48 1   
    30    16    48 1   
    31    17    18 1   
    32    18    19 1   
    33    18    20 1   
    34    18    21 1   
    35    22    23 1   
    36    22    24 1   
    37    25    26 1   
    38    26    27 1   
    39    26    28 1   
    40    26    29 1   
    41    30    31 1   
    42    31    32 1   
    43    31    33 1   
    44    31    34 1   
    45    35    36 1   
    46    36    37 1   
    47    36    38 1   
    48    36    39 1   
@<TRIPOS>SUBSTRUCTURE
     1 5A3         1 TEMP              0 ****  ****    0 ROOT
