@<TRIPOS>MOLECULE
5A3
   48    48     1     0     0
SMALL
abcg2


@<TRIPOS>ATOM
      1 O31         -3.9310    -1.8250     2.4750 o          1 5A3      -1.001333
      2 C2          -2.2550    -0.0130     0.1140 c6         1 5A3       0.198300
      3 C1          -1.5670    -1.2930     0.5900 c6         1 5A3       0.215800
      4 C4          -0.0310     1.0380    -0.4010 c6         1 5A3       0.228300
      5 C5           0.6470    -0.2800     0.0170 c6         1 5A3       0.216300
      6 C6          -0.2580    -1.5140    -0.1740 c6         1 5A3       0.228300
      7 C3          -1.3340     1.1760     0.3950 c6         1 5A3       0.215800
      8 O11         -2.4100    -2.3990     0.4820 os         1 5A3      -0.553900
      9 O75          6.5800    -0.1460     0.6030 o          1 5A3      -1.024167
     10 PB5          5.7690     1.1580     0.6640 p5         1 5A3       1.380500
     11 O55          5.3710     1.5580     2.0930 o          1 5A3      -1.024167
     12 O65          6.4590     2.3100    -0.0970 o          1 5A3      -1.024167
     13 CB5          4.1910     0.8650    -0.2720 c3         1 5A3      -0.806400
     14 O25          3.9940    -1.8030    -0.7130 o          1 5A3      -0.924500
     15 O35          3.1060    -0.8650     1.5520 o          1 5A3      -0.924500
     16 O15          1.8560    -0.4550    -0.6760 os         1 5A3      -0.597400
     17 O16          0.4210    -2.6460     0.2850 os         1 5A3      -0.594400
     18 PA6          0.6350    -4.0240    -0.6530 p5         1 5A3       1.347900
     19 O46         -0.6340    -4.8690    -0.5390 o          1 5A3      -0.993833
     20 O36          0.8920    -3.5550    -2.0870 o          1 5A3      -0.993833
     21 O26          1.8320    -4.6800     0.0390 o          1 5A3      -0.993833
     22 PA1         -3.1380    -2.9870     1.8650 p5         1 5A3       1.334900
     23 O41         -2.0260    -3.4690     2.8010 o          1 5A3      -1.001333
     24 O21         -4.0220    -4.1100     1.3170 o          1 5A3      -1.001333
     25 O12         -2.5310    -0.0760    -1.2660 os         1 5A3      -0.594400
     26 PA2         -4.0610    -0.1060    -1.9420 p5         1 5A3       1.358900
     27 O42         -5.0670     0.2840    -0.8630 o          1 5A3      -1.004500
     28 O22         -3.9480     0.9160    -3.0810 o          1 5A3      -1.004500
     29 O32         -4.2470    -1.5300    -2.4740 o          1 5A3      -1.004500
     30 O13         -1.9690     2.3890     0.1310 os         1 5A3      -0.553900
     31 PA3         -2.5230     3.3140     1.4060 p5         1 5A3       1.334900
     32 O43         -3.2680     4.4390     0.6810 o          1 5A3      -1.001333
     33 O33         -3.4290     2.4160     2.2540 o          1 5A3      -1.001333
     34 O23         -1.2960     3.7940     2.1870 o          1 5A3      -1.001333
     35 O14          0.8340     2.1050    -0.1410 os         1 5A3      -0.594400
     36 PA4          1.2780     3.1940    -1.3470 p5         1 5A3       1.347900
     37 O24          2.3510     4.0030    -0.6120 o          1 5A3      -0.993833
     38 O44          1.7930     2.3710    -2.5290 o          1 5A3      -0.993833
     39 O34          0.0450     4.0170    -1.7160 o          1 5A3      -0.993833
     40 H1          -3.1720     0.1180     0.6920 h1         1 5A3       0.059700
     41 H2          -1.2900    -1.1230     1.6450 h1         1 5A3      -0.016800
     42 H3          -0.2800     0.9870    -1.4690 h1         1 5A3       0.039700
     43 H4           0.8530    -0.2040     1.0960 h1         1 5A3       0.012700
     44 H5          -0.4900    -1.6140    -1.2410 h1         1 5A3       0.039700
     45 H6          -1.0540     1.1100     1.4610 h1         1 5A3      -0.016800
     46 H9           3.5220     1.7130    -0.1180 hc         1 5A3       0.069700
     47 H10          4.4030     0.8820    -1.3470 hc         1 5A3       0.069700
     48 PA5          3.3200    -0.6970     0.0640 p5         1 5A3       1.531400
@<TRIPOS>BOND
     1     1    22 1   
     2     2     3 1   
     3     2     7 1   
     4     2    25 1   
     5     2    40 1   
     6     3     6 1   
     7     3     8 1   
     8     3    41 1   
     9     4     5 1   
    10     4     7 1   
    11     4    35 1   
    12     4    42 1   
    13     5     6 1   
    14     5    16 1   
    15     5    43 1   
    16     6    17 1   
    17     6    44 1   
    18     7    30 1   
    19     7    45 1   
    20     8    22 1   
    21     9    10 1   
    22    10    11 1   
    23    10    12 1   
    24    10    13 1   
    25    13    46 1   
    26    13    47 1   
    27    13    48 1   
    28    14    48 1   
    29    15    48 1   
    30    16    48 1   
    31    17    18 1   
    32    18    19 1   
    33    18    20 1   
    34    18    21 1   
    35    22    23 1   
    36    22    24 1   
    37    25    26 1   
    38    26    27 1   
    39    26    28 1   
    40    26    29 1   
    41    30    31 1   
    42    31    32 1   
    43    31    33 1   
    44    31    34 1   
    45    35    36 1   
    46    36    37 1   
    47    36    38 1   
    48    36    39 1   
@<TRIPOS>SUBSTRUCTURE
     1 5A3         1 TEMP              0 ****  ****    0 ROOT
