@<TRIPOS>MOLECULE
5A4
   56    58     1     0     0
SMALL
No Charge or Current Charge


@<TRIPOS>ATOM
      1 C1          20.3960    -9.0510    -2.0080 c6         1 5A4       0.376300
      2 C6          20.1980    -5.7830    -0.1330 c3         1 5A4       0.167600
      3 C5          19.7520    -6.8850    -1.1490 c6         1 5A4       0.152300
      4 C3          17.9390    -8.4390    -2.0180 c6         1 5A4       0.171300
      5 C10         10.2800   -10.6920    -1.5760 c3         1 5A4      -0.052800
      6 C8          19.1600   -11.5890    -0.3930 c          1 5A4       0.629700
      7 F1          19.1240   -13.1090     5.0790 f          1 5A4      -0.165000
      8 C7          22.7580    -9.6650    -2.1200 c3         1 5A4       0.150900
      9 C2          18.9440    -9.6240    -1.8670 c6         1 5A4       0.160300
     10 O2          18.7520   -10.2910    -0.5840 os         1 5A4      -0.397100
     11 O1          21.4010   -10.0700    -1.8710 os         1 5A4      -0.445000
     12 C4          18.2560    -7.3060    -0.9760 c6         1 5A4       0.127300
     13 O5          20.6150    -8.0410    -1.0010 os         1 5A4      -0.463000
     14 O3          16.5790    -8.9270    -1.9160 os         1 5A4      -0.412100
     15 O4          17.9800    -7.7600     0.3670 oh         1 5A4      -0.683000
     16 O6          21.5610    -5.3510    -0.3270 oh         1 5A4      -0.719000
     17 O8          15.6300    -6.9860    -2.6620 o          1 5A4      -0.503000
     18 O7          19.5780   -12.3180    -1.2830 o          1 5A4      -0.448000
     19 CA1         19.0850   -12.0220     1.0490 ca         1 5A4      -0.067600
     20 CB1         14.1730    -8.7970    -2.0580 ca         1 5A4      -0.159600
     21 CB2         12.9890    -8.0280    -2.0960 ca         1 5A4      -0.043500
     22 CB6         14.0710   -10.1940    -1.8710 ca         1 5A4      -0.043500
     23 CB3         11.7340    -8.6410    -1.9390 ca         1 5A4      -0.131500
     24 CB5         12.8130   -10.8020    -1.7140 ca         1 5A4      -0.131500
     25 CB4         11.6390   -10.0300    -1.7430 ca         1 5A4      -0.042300
     26 CA6         20.2360   -12.5980     1.6290 ca         1 5A4      -0.051000
     27 CA2         17.9190   -11.8390     1.8470 ca         1 5A4      -0.097200
     28 CA5         20.2480   -12.9640     2.9860 ca         1 5A4      -0.119000
     29 CA3         17.9500   -12.2030     3.2150 ca         1 5A4      -0.103000
     30 N1          16.6450   -11.3230     1.2640 no         1 5A4       0.679200
     31 CA4         19.1090   -12.7580     3.7740 ca         1 5A4       0.178000
     32 ON1         15.9380   -10.5970     1.9750 o          1 5A4      -0.384500
     33 ON2         16.2690   -11.8090     0.1920 o          1 5A4      -0.384500
     34 H1          20.4970    -8.5940    -3.0040 h2         1 5A4       0.030700
     35 H2          19.5160    -4.9280    -0.2370 h1         1 5A4       0.037200
     36 H3          20.0720    -6.1770     0.8850 h1         1 5A4       0.037200
     37 H4          19.8880    -6.4720    -2.1600 h1         1 5A4       0.054700
     38 H5          18.0680    -8.0220    -3.0290 h1         1 5A4       0.074700
     39 H6           9.8740   -10.9980    -2.5470 hc         1 5A4       0.046700
     40 H7          10.3450   -11.5850    -0.9420 hc         1 5A4       0.046700
     41 H8           9.5580   -10.0110    -1.1100 hc         1 5A4       0.046700
     42 H9          23.4360   -10.5210    -2.0160 h1         1 5A4       0.042033
     43 H10         22.8660    -9.2660    -3.1370 h1         1 5A4       0.042033
     44 H11         23.0760    -8.8920    -1.4080 h1         1 5A4       0.042033
     45 H12         18.7550   -10.3370    -2.6820 h1         1 5A4       0.095700
     46 H13         17.6370    -6.4260    -1.2010 h1         1 5A4       0.056700
     47 H14         18.3240    -8.6830     0.4080 ho         1 5A4       0.499000
     48 H15         21.7740    -4.7310     0.4090 ho         1 5A4       0.506000
     49 H16         13.0390    -6.9500    -2.2440 ha         1 5A4       0.142500
     50 H17         14.9620   -10.8170    -1.8560 ha         1 5A4       0.142500
     51 H18         10.8330    -8.0320    -1.9690 ha         1 5A4       0.118500
     52 H19         12.7550   -11.8790    -1.5720 ha         1 5A4       0.118500
     53 H20         21.1320   -12.7460     1.0280 ha         1 5A4       0.148000
     54 H21         21.1410   -13.4000     3.4270 ha         1 5A4       0.146000
     55 H22         17.0710   -12.0750     3.8430 ha         1 5A4       0.168000
     56 C9          15.5120    -8.1230    -2.2260 c          1 5A4       0.609700
@<TRIPOS>BOND
     1     1     9 1   
     2     1    11 1   
     3     1    13 1   
     4     1    34 1   
     5     2     3 1   
     6     2    16 1   
     7     2    35 1   
     8     2    36 1   
     9     3    12 1   
    10     3    13 1   
    11     3    37 1   
    12     4     9 1   
    13     4    12 1   
    14     4    14 1   
    15     4    38 1   
    16     5    25 1   
    17     5    39 1   
    18     5    40 1   
    19     5    41 1   
    20     6    10 1   
    21     6    18 2   
    22     6    19 1   
    23     7    31 1   
    24     8    11 1   
    25     8    42 1   
    26     8    43 1   
    27     8    44 1   
    28     9    10 1   
    29     9    45 1   
    30    12    15 1   
    31    12    46 1   
    32    14    56 1   
    33    15    47 1   
    34    16    48 1   
    35    17    56 2   
    36    19    26 ar  
    37    19    27 ar  
    38    20    21 ar  
    39    20    22 ar  
    40    20    56 1   
    41    21    23 ar  
    42    21    49 1   
    43    22    24 ar  
    44    22    50 1   
    45    23    25 ar  
    46    23    51 1   
    47    24    25 ar  
    48    24    52 1   
    49    26    28 ar  
    50    26    53 1   
    51    27    29 ar  
    52    27    30 1   
    53    28    31 ar  
    54    28    54 1   
    55    29    31 ar  
    56    29    55 1   
    57    30    32 1   
    58    30    33 1   
@<TRIPOS>SUBSTRUCTURE
     1 5A4         1 TEMP              0 ****  ****    0 ROOT
