@<TRIPOS>MOLECULE
5A4
   56    58     1     0     0
SMALL
abcg2


@<TRIPOS>ATOM
      1 C1          20.3080    -9.0190    -1.8980 c6         1 5A4       0.376300
      2 C6          20.1170    -5.8960     0.0270 c3         1 5A4       0.167600
      3 C5          19.6750    -6.9170    -0.9950 c6         1 5A4       0.152300
      4 C3          17.9100    -8.4360    -1.8320 c6         1 5A4       0.171300
      5 C10         10.3200   -10.5560    -1.6760 c3         1 5A4      -0.052800
      6 C8          18.9630   -11.6130    -0.4970 c          1 5A4       0.629700
      7 F1          19.6380   -13.1290     4.8670 f          1 5A4      -0.165000
      8 C7          22.5680    -9.6720    -2.0820 c3         1 5A4       0.150900
      9 C2          18.8920    -9.5950    -1.7790 c6         1 5A4       0.160300
     10 O2          18.7840   -10.2880    -0.5210 os         1 5A4      -0.397100
     11 O1          21.2260   -10.0410    -1.7520 os         1 5A4      -0.445000
     12 C4          18.2040    -7.3260    -0.8200 c6         1 5A4       0.127300
     13 O5          20.5340    -8.0540    -0.8850 os         1 5A4      -0.463000
     14 O3          16.5790    -8.9490    -1.6990 os         1 5A4      -0.412100
     15 O4          17.9090    -7.7710     0.4990 oh         1 5A4      -0.683000
     16 O6          21.3790    -5.3670    -0.3780 oh         1 5A4      -0.719000
     17 O8          15.8130    -7.2830    -3.0070 o          1 5A4      -0.503000
     18 O7          19.1030   -12.3280    -1.4550 o          1 5A4      -0.448000
     19 CA1         19.0710   -12.0810     0.9250 ca         1 5A4      -0.067600
     20 CB1         14.2630    -8.8740    -2.1350 ca         1 5A4      -0.159600
     21 CB2         13.1670    -8.2980    -2.7840 ca         1 5A4      -0.043500
     22 CB6         14.0640    -9.9910    -1.3210 ca         1 5A4      -0.043500
     23 CB3         11.9010    -8.8340    -2.6250 ca         1 5A4      -0.131500
     24 CB5         12.7910   -10.5200    -1.1680 ca         1 5A4      -0.131500
     25 CB4         11.6910    -9.9570    -1.8180 ca         1 5A4      -0.042300
     26 CA6         20.3190   -12.5020     1.3740 ca         1 5A4      -0.051000
     27 CA2         18.0260   -12.0430     1.8460 ca         1 5A4      -0.097200
     28 CA5         20.5190   -12.8610     2.7010 ca         1 5A4      -0.119000
     29 CA3         18.1930   -12.3830     3.1790 ca         1 5A4      -0.103000
     30 N1          16.6760   -11.6860     1.4030 no         1 5A4       0.679200
     31 CA4         19.4510   -12.7870     3.5780 ca         1 5A4       0.178000
     32 ON1         15.8910   -11.2450     2.2270 o          1 5A4      -0.384500
     33 ON2         16.4060   -11.8750     0.2240 o          1 5A4      -0.384500
     34 H1          20.4060    -8.5360    -2.8840 h2         1 5A4       0.030700
     35 H2          19.3620    -5.1030     0.0790 h1         1 5A4       0.037200
     36 H3          20.1890    -6.3720     1.0080 h1         1 5A4       0.037200
     37 H4          19.7830    -6.4780    -1.9960 h1         1 5A4       0.054700
     38 H5          18.0150    -7.9910    -2.8230 h1         1 5A4       0.074700
     39 H6          10.1160   -11.2390    -2.5050 hc         1 5A4       0.046700
     40 H7          10.2300   -11.1240    -0.7500 hc         1 5A4       0.046700
     41 H8           9.5490    -9.7840    -1.6930 hc         1 5A4       0.046700
     42 H9          23.1620   -10.5810    -2.0210 h1         1 5A4       0.042033
     43 H10         22.6130    -9.2700    -3.0980 h1         1 5A4       0.042033
     44 H11         22.9550    -8.9330    -1.3800 h1         1 5A4       0.042033
     45 H12         18.6980   -10.2900    -2.5920 h1         1 5A4       0.095700
     46 H13         17.5800    -6.4670    -1.0740 h1         1 5A4       0.056700
     47 H14         17.5960    -7.0170     1.0120 ho         1 5A4       0.499000
     48 H15         21.7200    -4.8190     0.3400 ho         1 5A4       0.506000
     49 H16         13.3190    -7.4290    -3.4110 ha         1 5A4       0.142500
     50 H17         14.8990   -10.4430    -0.8080 ha         1 5A4       0.142500
     51 H18         11.0590    -8.3780    -3.1320 ha         1 5A4       0.118500
     52 H19         12.6480   -11.3840    -0.5300 ha         1 5A4       0.118500
     53 H20         21.1490   -12.5290     0.6800 ha         1 5A4       0.148000
     54 H21         21.4880   -13.1870     3.0530 ha         1 5A4       0.146000
     55 H22         17.3660   -12.3560     3.8730 ha         1 5A4       0.168000
     56 C9          15.5990    -8.2730    -2.3380 c          1 5A4       0.609700
@<TRIPOS>BOND
     1     1     9 1   
     2     1    11 1   
     3     1    13 1   
     4     1    34 1   
     5     2     3 1   
     6     2    16 1   
     7     2    35 1   
     8     2    36 1   
     9     3    12 1   
    10     3    13 1   
    11     3    37 1   
    12     4     9 1   
    13     4    12 1   
    14     4    14 1   
    15     4    38 1   
    16     5    25 1   
    17     5    39 1   
    18     5    40 1   
    19     5    41 1   
    20     6    10 1   
    21     6    18 2   
    22     6    19 1   
    23     7    31 1   
    24     8    11 1   
    25     8    42 1   
    26     8    43 1   
    27     8    44 1   
    28     9    10 1   
    29     9    45 1   
    30    12    15 1   
    31    12    46 1   
    32    14    56 1   
    33    15    47 1   
    34    16    48 1   
    35    17    56 2   
    36    19    26 ar  
    37    19    27 ar  
    38    20    21 ar  
    39    20    22 ar  
    40    20    56 1   
    41    21    23 ar  
    42    21    49 1   
    43    22    24 ar  
    44    22    50 1   
    45    23    25 ar  
    46    23    51 1   
    47    24    25 ar  
    48    24    52 1   
    49    26    28 ar  
    50    26    53 1   
    51    27    29 ar  
    52    27    30 1   
    53    28    31 ar  
    54    28    54 1   
    55    29    31 ar  
    56    29    55 1   
    57    30    32 1   
    58    30    33 1   
@<TRIPOS>SUBSTRUCTURE
     1 5A4         1 TEMP              0 ****  ****    0 ROOT
