@<TRIPOS>MOLECULE
5A5
   34    35     1     0     0
SMALL
abcg2


@<TRIPOS>ATOM
      1 N01         -3.1960    11.0370   -20.2480 nv         1 5A5      -1.041900
      2 C02         -4.3660    10.5510   -19.7470 cc         1 5A5       0.661300
      3 N03         -5.1200     9.6900   -20.3400 nd         1 5A5      -0.666000
      4 C04         -6.1980     9.3230   -19.5620 cd         1 5A5       0.285500
      5 C05         -7.1870     8.3110   -20.1280 c          1 5A5       0.627500
      6 O06         -8.0230     7.8300   -19.3340 o          1 5A5      -0.702500
      7 O07         -7.0700     8.0540   -21.3370 o          1 5A5      -0.702500
      8 C08         -6.2750     9.9350   -18.3470 cc         1 5A5      -0.195300
      9 C09         -7.2500     9.8300   -17.2170 c3         1 5A5       0.049200
     10 C10         -6.6820     9.0670   -16.0440 ca         1 5A5      -0.054300
     11 C11         -6.4990     7.6890   -16.1200 ca         1 5A5      -0.100500
     12 C12         -5.9630     6.9840   -15.0530 ca         1 5A5      -0.117000
     13 C13         -5.5840     7.6270   -13.8760 ca         1 5A5      -0.099300
     14 C14         -4.9820     6.8540   -12.7260 c3         1 5A5      -0.010400
     15 C15         -5.8250     6.9780   -11.4570 c3         1 5A5      -0.081100
     16 C16         -3.5390     7.2840   -12.4660 c3         1 5A5      -0.081100
     17 C17         -5.7670     9.0070   -13.8050 ca         1 5A5      -0.117000
     18 C18         -6.3090     9.7130   -14.8700 ca         1 5A5      -0.100500
     19 S19         -4.9150    11.0110   -18.1610 ss         1 5A5      -0.261400
     20 H1          -3.0880    10.9210   -21.2440 hn         1 5A5       0.450500
     21 H2          -2.8910    11.9400   -19.9210 hn         1 5A5       0.450500
     22 H4          -7.5440    10.8310   -16.8880 hc         1 5A5       0.069700
     23 H5          -8.1420     9.3320   -17.5870 hc         1 5A5       0.069700
     24 H6          -6.7840     7.1680   -17.0270 ha         1 5A5       0.129000
     25 H7          -5.8360     5.9100   -15.1350 ha         1 5A5       0.097000
     26 H8          -4.9690     5.7980   -13.0140 hc         1 5A5       0.043700
     27 H9          -5.4050     6.3660   -10.6560 hc         1 5A5       0.028367
     28 H10         -5.8580     8.0090   -11.1000 hc         1 5A5       0.028367
     29 H11         -6.8510     6.6490   -11.6260 hc         1 5A5       0.028367
     30 H12         -3.0920     6.6790   -11.6750 hc         1 5A5       0.028367
     31 H13         -2.9240     7.1740   -13.3600 hc         1 5A5       0.028367
     32 H14         -3.4880     8.3280   -12.1520 hc         1 5A5       0.028367
     33 H15         -5.4850     9.5450   -12.9070 ha         1 5A5       0.097000
     34 H16         -6.4420    10.7860   -14.7850 ha         1 5A5       0.129000
@<TRIPOS>BOND
     1     1     2 1   
     2     1    20 1   
     3     1    21 1   
     4     2     3 2   
     5     2    19 1   
     6     3     4 1   
     7     4     5 1   
     8     4     8 2   
     9     5     6 1   
    10     5     7 1   
    11     8     9 1   
    12     8    19 1   
    13     9    10 1   
    14     9    22 1   
    15     9    23 1   
    16    10    11 ar  
    17    10    18 ar  
    18    11    12 ar  
    19    11    24 1   
    20    12    13 ar  
    21    12    25 1   
    22    13    14 1   
    23    13    17 ar  
    24    14    15 1   
    25    14    16 1   
    26    14    26 1   
    27    15    27 1   
    28    15    28 1   
    29    15    29 1   
    30    16    30 1   
    31    16    31 1   
    32    16    32 1   
    33    17    18 ar  
    34    17    33 1   
    35    18    34 1   
@<TRIPOS>SUBSTRUCTURE
     1 5A5         1 TEMP              0 ****  ****    0 ROOT
