@<TRIPOS>MOLECULE
5A5
   34    35     1     0     0
SMALL
No Charge or Current Charge


@<TRIPOS>ATOM
      1 N01         -3.7720    12.1460   -20.1470 nv         1 5A5      -1.041900
      2 C02         -4.6170    11.2690   -19.6020 cc         1 5A5       0.661300
      3 N03         -4.6260    10.0490   -20.0470 nd         1 5A5      -0.666000
      4 C04         -5.5920     9.2890   -19.3570 cd         1 5A5       0.285500
      5 C05         -5.8770     7.8020   -19.6360 c          1 5A5       0.627500
      6 O06         -6.7630     7.2050   -19.0360 o          1 5A5      -0.702500
      7 O07         -5.2100     7.2290   -20.4940 o          1 5A5      -0.702500
      8 C08         -6.2730    10.0390   -18.3860 cc         1 5A5      -0.195300
      9 C09         -7.3460     9.6270   -17.4000 c3         1 5A5       0.049200
     10 C10         -6.7980     8.8870   -16.1810 ca         1 5A5      -0.054300
     11 C11         -7.2820     7.6100   -15.8360 ca         1 5A5      -0.100500
     12 C12         -6.7830     6.9390   -14.7060 ca         1 5A5      -0.117000
     13 C13         -5.7940     7.5340   -13.8980 ca         1 5A5      -0.099300
     14 C14         -5.2570     6.7950   -12.6700 c3         1 5A5      -0.010400
     15 C15         -5.5740     7.5600   -11.3650 c3         1 5A5      -0.081100
     16 C16         -3.7470     6.4960   -12.8030 c3         1 5A5      -0.081100
     17 C17         -5.3150     8.8150   -14.2400 ca         1 5A5      -0.117000
     18 C18         -5.8140     9.4860   -15.3700 ca         1 5A5      -0.100500
     19 S19         -5.7280    11.6980   -18.3590 ss         1 5A5      -0.261400
     20 H1          -3.3670    11.8690   -21.0330 hn         1 5A5       0.450500
     21 H2          -3.9850    13.1280   -20.0250 hn         1 5A5       0.450500
     22 H4          -7.8760    10.5220   -17.0520 hc         1 5A5       0.069700
     23 H5          -8.1180     9.0350   -17.9060 hc         1 5A5       0.069700
     24 H6          -8.0450     7.1330   -16.4470 ha         1 5A5       0.129000
     25 H7          -7.1690     5.9530   -14.4610 ha         1 5A5       0.097000
     26 H8          -5.7620     5.8240   -12.5930 hc         1 5A5       0.043700
     27 H9          -5.2560     6.9800   -10.4910 hc         1 5A5       0.028367
     28 H10         -5.0610     8.5280   -11.3380 hc         1 5A5       0.028367
     29 H11         -6.6520     7.7400   -11.2790 hc         1 5A5       0.028367
     30 H12         -3.3960     5.8970   -11.9550 hc         1 5A5       0.028367
     31 H13         -3.5480     5.9330   -13.7230 hc         1 5A5       0.028367
     32 H14         -3.1600     7.4220   -12.8330 hc         1 5A5       0.028367
     33 H15         -4.5540     9.2960   -13.6310 ha         1 5A5       0.097000
     34 H16         -5.4340    10.4750   -15.6140 ha         1 5A5       0.129000
@<TRIPOS>BOND
     1     1     2 1   
     2     1    20 1   
     3     1    21 1   
     4     2     3 2   
     5     2    19 1   
     6     3     4 1   
     7     4     5 1   
     8     4     8 2   
     9     5     6 1   
    10     5     7 1   
    11     8     9 1   
    12     8    19 1   
    13     9    10 1   
    14     9    22 1   
    15     9    23 1   
    16    10    11 ar  
    17    10    18 ar  
    18    11    12 ar  
    19    11    24 1   
    20    12    13 ar  
    21    12    25 1   
    22    13    14 1   
    23    13    17 ar  
    24    14    15 1   
    25    14    16 1   
    26    14    26 1   
    27    15    27 1   
    28    15    28 1   
    29    15    29 1   
    30    16    30 1   
    31    16    31 1   
    32    16    32 1   
    33    17    18 ar  
    34    17    33 1   
    35    18    34 1   
@<TRIPOS>SUBSTRUCTURE
     1 5A5         1 TEMP              0 ****  ****    0 ROOT
