@<TRIPOS>MOLECULE
5A6
   37    37     1     0     0
SMALL
No Charge or Current Charge


@<TRIPOS>ATOM
      1 O           -5.4190     4.3390     8.6360 o          1 5A6      -0.725000
      2 C           -4.4150     4.0400     8.0000 c          1 5A6       0.718000
      3 N18         -0.3510     4.2020    -0.1340 n8         1 5A6      -0.993200
      4 C19          0.1480     4.5490     1.2110 c3         1 5A6       0.141800
      5 C20          0.6850     3.3050     1.9520 c3         1 5A6      -0.073400
      6 C21          1.1620     3.5860     3.3970 c3         1 5A6      -0.081400
      7 C22          2.3940     4.5220     3.4910 c3         1 5A6      -0.071400
      8 C23          2.9290     4.7030     4.9300 c3         1 5A6      -0.095700
      9 CA          -3.0030     4.2250     8.7130 c3         1 5A6       0.017500
     10 C29         -1.8820     4.5890     7.6970 c3         1 5A6      -0.043400
     11 C30         -0.5690     5.1000     8.3420 c3         1 5A6      -0.116700
     12 C31          0.4510     5.5320     7.3280 cc         1 5A6       0.452300
     13 N32          0.7390     6.7690     6.9540 nd         1 5A6      -0.395000
     14 N33          1.7180     6.6580     6.0000 nd         1 5A6      -0.381000
     15 C34          1.9510     5.3620     5.8650 cc         1 5A6       0.400300
     16 O35          1.1850     4.5940     6.6790 os         1 5A6      -0.278000
     17 N           -2.5610     3.0970     9.6120 n8         1 5A6      -1.017200
     18 H2          -0.6400     5.0620    -0.6170 hn         1 5A6       0.384000
     19 H3           0.4320     3.8570    -0.7030 hn         1 5A6       0.384000
     20 H5           0.9470     5.2970     1.1050 h1         1 5A6       0.036700
     21 H6          -0.6730     4.9970     1.7880 h1         1 5A6       0.036700
     22 H7          -0.1070     2.5470     1.9930 hc         1 5A6       0.041200
     23 H8           1.5120     2.8650     1.3800 hc         1 5A6       0.041200
     24 H9           0.3290     4.0130     3.9700 hc         1 5A6       0.054200
     25 H10          1.4090     2.6280     3.8730 hc         1 5A6       0.054200
     26 H11          3.1990     4.1150     2.8670 hc         1 5A6       0.042200
     27 H12          2.1430     5.5080     3.0810 hc         1 5A6       0.042200
     28 H13          3.2210     3.7270     5.3340 hc         1 5A6       0.062700
     29 H14          3.8450     5.3040     4.8930 hc         1 5A6       0.062700
     30 H15         -3.1210     5.0970     9.3710 h1         1 5A6       0.002700
     31 H16         -1.6630     3.7200     7.0630 hc         1 5A6       0.054700
     32 H17         -2.2610     5.3730     7.0290 hc         1 5A6       0.054700
     33 H18         -0.1310     4.3140     8.9680 hc         1 5A6       0.067700
     34 H19         -0.7950     5.9410     9.0080 hc         1 5A6       0.067700
     35 H20         -1.7270     3.3860    10.1360 hn         1 5A6       0.388000
     36 H21         -3.2710     2.9560    10.3430 hn         1 5A6       0.388000
     37 OXT         -4.4590     3.6130     6.8520 o          1 5A6      -0.725000
@<TRIPOS>BOND
     1     1     2 1   
     2     2     9 1   
     3     2    37 1   
     4     3     4 1   
     5     3    18 1   
     6     3    19 1   
     7     4     5 1   
     8     4    20 1   
     9     4    21 1   
    10     5     6 1   
    11     5    22 1   
    12     5    23 1   
    13     6     7 1   
    14     6    24 1   
    15     6    25 1   
    16     7     8 1   
    17     7    26 1   
    18     7    27 1   
    19     8    15 1   
    20     8    28 1   
    21     8    29 1   
    22     9    10 1   
    23     9    17 1   
    24     9    30 1   
    25    10    11 1   
    26    10    31 1   
    27    10    32 1   
    28    11    12 1   
    29    11    33 1   
    30    11    34 1   
    31    12    13 2   
    32    12    16 1   
    33    13    14 1   
    34    14    15 2   
    35    15    16 1   
    36    17    35 1   
    37    17    36 1   
@<TRIPOS>SUBSTRUCTURE
     1 5A6         1 TEMP              0 ****  ****    0 ROOT
