@<TRIPOS>MOLECULE
5A6
   37    37     1     0     0
SMALL
bcc


@<TRIPOS>ATOM
      1 O           -4.7720     2.9750     7.8830 o          1 5A6      -0.830300
      2 C           -4.1140     3.9410     7.4470 c          1 5A6       0.928600
      3 N18         -0.8470     4.1680     0.4180 n8         1 5A6      -0.882800
      4 C19         -0.2370     4.4350     1.7140 c3         1 5A6       0.141800
      5 C20          0.6130     3.2550     2.1640 c3         1 5A6      -0.073400
      6 C21          1.2380     3.4440     3.5440 c3         1 5A6      -0.081400
      7 C22          2.3570     4.4790     3.5710 c3         1 5A6      -0.071400
      8 C23          3.0450     4.6320     4.9350 c3         1 5A6      -0.095700
      9 CA          -2.8950     4.3990     8.2950 c3         1 5A6       0.017500
     10 C29         -1.6940     4.7140     7.4060 c3         1 5A6      -0.043400
     11 C30         -0.4950     5.2080     8.2200 c3         1 5A6      -0.116700
     12 C31          0.6580     5.5790     7.3710 cc         1 5A6       0.496700
     13 N32          1.2260     6.7210     7.2230 nd         1 5A6      -0.395000
     14 N33          2.2310     6.5510     6.3000 nd         1 5A6      -0.381000
     15 C34          2.2050     5.3160     5.9440 cc         1 5A6       0.444700
     16 O35          1.2350     4.6450     6.5920 os         1 5A6      -0.366800
     17 N           -2.5410     3.4020     9.2950 n8         1 5A6      -0.906800
     18 H2          -1.4250     4.9540     0.1500 hn         1 5A6       0.328800
     19 H3          -0.1200     4.1170    -0.2850 hn         1 5A6       0.328800
     20 H5           0.3660     5.3540     1.7240 h1         1 5A6       0.036700
     21 H6          -1.0360     4.5880     2.4440 h1         1 5A6       0.036700
     22 H7          -0.0170     2.3620     2.1720 hc         1 5A6       0.041200
     23 H8           1.4020     3.0690     1.4260 hc         1 5A6       0.041200
     24 H9           0.4480     3.7100     4.2520 hc         1 5A6       0.054200
     25 H10          1.6430     2.4870     3.8870 hc         1 5A6       0.054200
     26 H11          3.1250     4.1850     2.8500 hc         1 5A6       0.042200
     27 H12          1.9930     5.4570     3.2490 hc         1 5A6       0.042200
     28 H13          3.3510     3.6530     5.3130 hc         1 5A6       0.062700
     29 H14          3.9500     5.2280     4.8170 hc         1 5A6       0.062700
     30 H15         -3.2040     5.3480     8.7660 h1         1 5A6       0.002700
     31 H16         -1.4110     3.8140     6.8520 hc         1 5A6       0.054700
     32 H17         -1.9690     5.4730     6.6730 hc         1 5A6       0.054700
     33 H18         -0.1880     4.4400     8.9340 hc         1 5A6       0.067700
     34 H19         -0.7690     6.0940     8.7980 hc         1 5A6       0.067700
     35 H20         -2.2840     3.8470    10.1660 hn         1 5A6       0.332800
     36 H21         -3.3690     2.8500     9.4780 hn         1 5A6       0.332800
     37 OXT         -4.3470     4.5990     6.4160 o          1 5A6      -0.830300
@<TRIPOS>BOND
     1     1     2 1   
     2     2     9 1   
     3     2    37 1   
     4     3     4 1   
     5     3    18 1   
     6     3    19 1   
     7     4     5 1   
     8     4    20 1   
     9     4    21 1   
    10     5     6 1   
    11     5    22 1   
    12     5    23 1   
    13     6     7 1   
    14     6    24 1   
    15     6    25 1   
    16     7     8 1   
    17     7    26 1   
    18     7    27 1   
    19     8    15 1   
    20     8    28 1   
    21     8    29 1   
    22     9    10 1   
    23     9    17 1   
    24     9    30 1   
    25    10    11 1   
    26    10    31 1   
    27    10    32 1   
    28    11    12 1   
    29    11    33 1   
    30    11    34 1   
    31    12    13 2   
    32    12    16 1   
    33    13    14 1   
    34    14    15 2   
    35    15    16 1   
    36    17    35 1   
    37    17    36 1   
@<TRIPOS>SUBSTRUCTURE
     1 5A6         1 TEMP              0 ****  ****    0 ROOT
