@<TRIPOS>MOLECULE
5A7
   47    50     1     0     0
SMALL
No Charge or Current Charge


@<TRIPOS>ATOM
      1 O1          -5.7480     2.4480     0.0810 o          1 5A7      -0.918833
      2 O3          -5.7000     0.0580    -0.6450 o          1 5A7      -0.918833
      3 C11         -1.0480    -4.1040    -1.0060 ca         1 5A7      -0.100000
      4 C12         -1.1280    -3.6240    -2.3230 ca         1 5A7      -0.094000
      5 C13         -0.5080    -2.4120    -2.6630 ca         1 5A7      -0.106000
      6 C14          0.1880    -1.6770    -1.6890 ca         1 5A7      -0.072000
      7 C15          1.6540    -0.1090     0.3580 cp         1 5A7      -0.009000
      8 C16          3.0690    -0.0730     0.3240 ca         1 5A7      -0.117000
      9 C17          3.7680     1.1220     0.0600 ca         1 5A7      -0.087000
     10 C18          3.0350     2.2960    -0.1670 ca         1 5A7      -0.133000
     11 C19          0.9140     1.0890     0.1390 ca         1 5A7       0.306000
     12 C20          1.6290     2.2870    -0.1280 ca         1 5A7      -0.118000
     13 C21          0.9250     3.4830    -0.3520 ca         1 5A7      -0.106000
     14 C22         -0.4740     3.4470    -0.3000 ca         1 5A7      -0.147000
     15 C23         -1.1190     2.2300    -0.0270 ca         1 5A7       0.483800
     16 C26         -2.5990     2.1590     0.0360 ce         1 5A7      -0.419800
     17 C27         -3.3390     1.0390     0.2770 c2         1 5A7      -0.081600
     18 C28          6.1980     0.2720     0.1880 c          1 5A7       0.600100
     19 C29          7.6070     0.8410     0.0300 c3         1 5A7      -0.182100
     20 P2          -5.2270     1.0740     0.3390 p5         1 5A7       1.120100
     21 O4          -5.6100     0.5320     1.6750 o          1 5A7      -0.918833
     22 C5           1.0500    -1.9490     1.9500 ca         1 5A7      -0.108000
     23 C6           0.4320    -3.1660     2.2710 ca         1 5A7      -0.115000
     24 C7          -0.2690    -3.8760     1.2860 ca         1 5A7      -0.096000
     25 C8           0.9750    -1.4100     0.6430 cp         1 5A7       0.014000
     26 C9           0.2720    -2.1440    -0.3570 ca         1 5A7       0.005000
     27 C10         -0.3500    -3.3730    -0.0250 ca         1 5A7      -0.028000
     28 N24         -0.4430     1.0820     0.1880 nb         1 5A7      -0.696000
     29 O30          6.0150    -0.9110     0.4520 o          1 5A7      -0.595100
     30 H2          -1.5260    -5.0470    -0.7510 ha         1 5A7       0.100000
     31 H3          -1.6660    -4.1910    -3.0780 ha         1 5A7       0.102000
     32 H4          -0.5670    -2.0400    -3.6840 ha         1 5A7       0.103000
     33 H5           0.6610    -0.7440    -1.9810 ha         1 5A7       0.115000
     34 H6           3.6000    -1.0030     0.5020 ha         1 5A7       0.136000
     35 H7           3.5610     3.2260    -0.3730 ha         1 5A7       0.086000
     36 H8           1.4470     4.4140    -0.5590 ha         1 5A7       0.086000
     37 H9          -1.0540     4.3500    -0.4670 ha         1 5A7       0.120000
     38 H10         -3.1010     3.1110    -0.1310 ha         1 5A7       0.191000
     39 H11         -2.9120     0.0550     0.4520 ha         1 5A7       0.149000
     40 H12          7.7290     1.6880     0.7150 hc         1 5A7       0.051033
     41 H13          8.3890     0.0870     0.1770 hc         1 5A7       0.051033
     42 H14          7.6890     1.3240    -0.9500 hc         1 5A7       0.051033
     43 H16          1.5900    -1.4050     2.7210 ha         1 5A7       0.103000
     44 H17          0.4970    -3.5600     3.2830 ha         1 5A7       0.094000
     45 H18         -0.7460    -4.8200     1.5420 ha         1 5A7       0.099000
     46 H19          5.5270     2.1420    -0.2020 hn         1 5A7       0.134000
     47 N25          5.1880     1.2110     0.0080 ns         1 5A7      -0.135000
@<TRIPOS>BOND
     1     1    20 1   
     2     2    20 1   
     3     3     4 ar  
     4     3    27 ar  
     5     3    30 1   
     6     4     5 ar  
     7     4    31 1   
     8     5     6 ar  
     9     5    32 1   
    10     6    26 ar  
    11     6    33 1   
    12     7     8 ar  
    13     7    11 ar  
    14     7    25 1   
    15     8     9 ar  
    16     8    34 1   
    17     9    10 ar  
    18     9    47 1   
    19    10    12 ar  
    20    10    35 1   
    21    11    12 ar  
    22    11    28 ar  
    23    12    13 ar  
    24    13    14 ar  
    25    13    36 1   
    26    14    15 ar  
    27    14    37 1   
    28    15    16 1   
    29    15    28 ar  
    30    16    17 2   
    31    16    38 1   
    32    17    20 1   
    33    17    39 1   
    34    18    19 1   
    35    18    29 2   
    36    18    47 1   
    37    19    40 1   
    38    19    41 1   
    39    19    42 1   
    40    20    21 1   
    41    22    23 ar  
    42    22    25 ar  
    43    22    43 1   
    44    23    24 ar  
    45    23    44 1   
    46    24    27 ar  
    47    24    45 1   
    48    25    26 ar  
    49    26    27 ar  
    50    46    47 1   
@<TRIPOS>SUBSTRUCTURE
     1 5A7         1 TEMP              0 ****  ****    0 ROOT
