@<TRIPOS>MOLECULE
5A7
   47    50     1     0     0
SMALL
abcg2


@<TRIPOS>ATOM
      1 O1          -5.6060     2.1850     0.1400 o          1 5A7      -0.918833
      2 O3          -5.3930    -0.0640    -1.0920 o          1 5A7      -0.918833
      3 C11         -1.2270    -3.8860    -0.9650 ca         1 5A7      -0.100000
      4 C12         -1.3630    -3.3690    -2.2230 ca         1 5A7      -0.094000
      5 C13         -0.6970    -2.1760    -2.5700 ca         1 5A7      -0.106000
      6 C14          0.0750    -1.5200    -1.6510 ca         1 5A7      -0.072000
      7 C15          1.7190    -0.0900     0.3540 cp         1 5A7      -0.009000
      8 C16          3.0900    -0.0570     0.2980 ca         1 5A7      -0.117000
      9 C17          3.7840     1.1530     0.0490 ca         1 5A7      -0.087000
     10 C18          3.0680     2.3130    -0.1410 ca         1 5A7      -0.133000
     11 C19          0.9660     1.1020     0.1710 ca         1 5A7       0.306000
     12 C20          1.6640     2.3070    -0.0830 ca         1 5A7      -0.118000
     13 C21          0.8820     3.4730    -0.2600 ca         1 5A7      -0.106000
     14 C22         -0.4760     3.3850    -0.1890 ca         1 5A7      -0.147000
     15 C23         -1.0890     2.1260     0.0640 ca         1 5A7       0.483800
     16 C26         -2.5510     2.0340     0.1020 ce         1 5A7      -0.419800
     17 C27         -3.2420     0.8880     0.1410 c2         1 5A7      -0.081600
     18 C28          6.1230     0.3000     0.2370 c          1 5A7       0.600100
     19 C29          7.5390     0.7610    -0.0010 c3         1 5A7      -0.182100
     20 P2          -5.0770     0.7490     0.1660 p5         1 5A7       1.120100
     21 O4          -5.3590    -0.0030     1.4720 o          1 5A7      -0.918833
     22 C5           1.1660    -1.9330     1.8880 ca         1 5A7      -0.108000
     23 C6           0.5180    -3.1400     2.2220 ca         1 5A7      -0.115000
     24 C7          -0.2680    -3.7730     1.3020 ca         1 5A7      -0.096000
     25 C8           1.0250    -1.3660     0.6460 cp         1 5A7       0.014000
     26 C9           0.2260    -2.0200    -0.3360 ca         1 5A7       0.005000
     27 C10         -0.4290    -3.2330     0.0050 ca         1 5A7      -0.028000
     28 N24         -0.3740     1.0410     0.2490 nb         1 5A7      -0.696000
     29 O30          5.8750    -0.8260     0.6330 o          1 5A7      -0.595100
     30 H2          -1.7260    -4.8090    -0.6940 ha         1 5A7       0.100000
     31 H3          -1.9770    -3.8750    -2.9570 ha         1 5A7       0.102000
     32 H4          -0.7980    -1.7780    -3.5710 ha         1 5A7       0.103000
     33 H5           0.5820    -0.6080    -1.9360 ha         1 5A7       0.115000
     34 H6           3.6420    -0.9730     0.4360 ha         1 5A7       0.136000
     35 H7           3.5810     3.2470    -0.3410 ha         1 5A7       0.086000
     36 H8           1.3680     4.4210    -0.4560 ha         1 5A7       0.086000
     37 H9          -1.0960     4.2620    -0.3280 ha         1 5A7       0.120000
     38 H10         -3.0880     2.9770     0.0690 ha         1 5A7       0.191000
     39 H11         -2.6590    -0.0330     0.1460 ha         1 5A7       0.149000
     40 H12          7.6270     1.8170    -0.2490 hc         1 5A7       0.051033
     41 H13          8.1390     0.5600     0.8860 hc         1 5A7       0.051033
     42 H14          7.9660     0.1810    -0.8190 hc         1 5A7       0.051033
     43 H16          1.7740    -1.4360     2.6330 ha         1 5A7       0.103000
     44 H17          0.6440    -3.5540     3.2140 ha         1 5A7       0.094000
     45 H18         -0.7710    -4.7000     1.5520 ha         1 5A7       0.099000
     46 H19          5.5230     2.1360    -0.3310 hn         1 5A7       0.134000
     47 N25          5.1770     1.2350    -0.0410 ns         1 5A7      -0.135000
@<TRIPOS>BOND
     1     1    20 1   
     2     2    20 1   
     3     3     4 ar  
     4     3    27 ar  
     5     3    30 1   
     6     4     5 ar  
     7     4    31 1   
     8     5     6 ar  
     9     5    32 1   
    10     6    26 ar  
    11     6    33 1   
    12     7     8 ar  
    13     7    11 ar  
    14     7    25 1   
    15     8     9 ar  
    16     8    34 1   
    17     9    10 ar  
    18     9    47 1   
    19    10    12 ar  
    20    10    35 1   
    21    11    12 ar  
    22    11    28 ar  
    23    12    13 ar  
    24    13    14 ar  
    25    13    36 1   
    26    14    15 ar  
    27    14    37 1   
    28    15    16 1   
    29    15    28 ar  
    30    16    17 2   
    31    16    38 1   
    32    17    20 1   
    33    17    39 1   
    34    18    19 1   
    35    18    29 2   
    36    18    47 1   
    37    19    40 1   
    38    19    41 1   
    39    19    42 1   
    40    20    21 1   
    41    22    23 ar  
    42    22    25 ar  
    43    22    43 1   
    44    23    24 ar  
    45    23    44 1   
    46    24    27 ar  
    47    24    45 1   
    48    25    26 ar  
    49    26    27 ar  
    50    46    47 1   
@<TRIPOS>SUBSTRUCTURE
     1 5A7         1 TEMP              0 ****  ****    0 ROOT
