@<TRIPOS>MOLECULE
5A8
   61    65     1     0     0
SMALL
abcg2


@<TRIPOS>ATOM
      1 C2           6.2820     2.9780    -0.1500 ca         1 5A8       0.179900
      2 C4           4.5110     1.6820    -0.1770 ca         1 5A8       0.148500
      3 C5           3.6790     2.7260    -0.5370 ca         1 5A8      -0.089600
      4 C6           4.2860     3.9850    -0.6900 ca         1 5A8       0.443900
      5 N9           3.6970     0.5830    -0.0880 na         1 5A8      -0.270300
      6 CBF         -7.1110     0.4350     0.3950 ca         1 5A8      -0.094800
      7 CBK         -6.8000     0.2730     1.7500 ca         1 5A8      -0.062000
      8 CBJ         -7.7210    -0.3370     2.5800 ca         1 5A8      -0.139000
      9 CBI         -8.9540    -0.7920     2.0810 ca         1 5A8      -0.090000
     10 CBH         -9.2890    -0.6440     0.7490 ca         1 5A8      -0.127000
     11 CBG         -8.3570    -0.0260    -0.0850 ca         1 5A8      -0.046200
     12 NBD         -8.4090     0.2570    -1.4170 na         1 5A8      -0.221700
     13 CBE         -7.2500     0.8770    -1.7930 cc         1 5A8      -0.150100
     14 CBC         -6.4170     1.0120    -0.7180 cd         1 5A8      -0.148400
     15 CBA         -5.0420     1.5920    -0.7090 c3         1 5A8      -0.014200
     16 CAZ         -3.9770     0.5010    -0.6970 c3         1 5A8       0.102000
     17 NAY         -2.6510     1.0850    -0.6580 ns         1 5A8      -0.503900
     18 CAX         -1.5460     0.3500    -0.5100 c          1 5A8       0.608100
     19 OBB         -1.5510    -0.8660    -0.3860 o          1 5A8      -0.591100
     20 CAW         -0.2500     1.1380    -0.4990 c3         1 5A8      -0.077400
     21 C8           2.4300     1.0230    -0.4040 cc         1 5A8       0.403700
     22 N7           2.3860     2.2940    -0.6800 nd         1 5A8      -0.578100
     23 N6           3.6030     5.0770    -1.0430 nv         1 5A8      -1.063900
     24 N1           5.6060     4.0720    -0.4870 nb         1 5A8      -0.299000
     25 N3           5.8220     1.7510     0.0290 nb         1 5A8      -0.207000
     26 CAL          4.1230    -0.7130     0.3690 c5         1 5A8       0.315300
     27 OAM          3.5690    -1.7020    -0.4500 os         1 5A8      -0.430000
     28 CAP          3.6780    -1.0740     1.7830 c5         1 5A8       0.130300
     29 OAQ          4.4550    -0.3900     2.7110 oh         1 5A8      -0.670000
     30 CAO          3.8360    -2.5960     1.7440 c5         1 5A8       0.101300
     31 OAR          5.1870    -2.8940     1.9700 oh         1 5A8      -0.687000
     32 CAN          3.3950    -2.9070     0.3030 c5         1 5A8       0.112300
     33 CAS          1.9520    -3.3820     0.2310 c3         1 5A8       0.143800
     34 NAT          1.4830    -3.5470    -1.1450 n2         1 5A8      -0.394200
     35 NAU          1.8720    -4.5400    -1.7320 n1         1 5A8       0.223000
     36 NAV          2.1680    -5.4240    -2.3610 n1         1 5A8      -0.080000
     37 H1           7.3480     3.1150    -0.0030 h5         1 5A8       0.047100
     38 H3          -7.4940    -0.4690     3.6300 ha         1 5A8       0.111000
     39 H4          -9.6550    -1.2680     2.7550 ha         1 5A8       0.111000
     40 H5         -10.2410    -0.9940     0.3690 ha         1 5A8       0.113000
     41 H6          -9.1750     0.0490    -2.0350 hn         1 5A8       0.352000
     42 H7          -7.0990     1.1830    -2.8170 h4         1 5A8       0.212000
     43 H8          -4.9020     2.2290    -1.5870 hc         1 5A8       0.045700
     44 H9          -4.9100     2.2340     0.1680 hc         1 5A8       0.045700
     45 H10         -4.1150    -0.1470     0.1710 h1         1 5A8       0.058700
     46 H11         -4.0880    -0.1280    -1.5850 h1         1 5A8       0.058700
     47 H12         -2.5620     2.0800    -0.7930 hn         1 5A8       0.315500
     48 H13         -0.1680     1.7710    -1.3830 h1         1 5A8       0.092200
     49 H14         -0.2010     1.7840     0.3790 h1         1 5A8       0.092200
     50 H15          4.0580     5.9740    -1.0500 hn         1 5A8       0.502000
     51 H16          2.6000     5.0590    -1.0990 hn         1 5A8       0.502000
     52 H17          5.2190    -0.7010     0.3170 h2         1 5A8       0.123700
     53 H18          2.6100    -0.8420     1.8920 h1         1 5A8       0.059700
     54 H19          4.0520    -0.4790     3.5800 ho         1 5A8       0.510000
     55 H20          3.1850    -3.0960     2.4720 h1         1 5A8       0.052700
     56 H21          5.3010    -3.8490     1.9220 ho         1 5A8       0.505000
     57 H22          4.0450    -3.6790    -0.1250 h1         1 5A8       0.062700
     58 H23          1.8690    -4.3170     0.7920 h1         1 5A8       0.071700
     59 H24          1.2770    -2.6620     0.6900 h1         1 5A8       0.071700
     60 SAA          1.0850    -0.0830    -0.4610 ss         1 5A8      -0.103200
     61 H2          -5.8540     0.6250     2.1450 ha         1 5A8       0.113000
@<TRIPOS>BOND
     1     1    24 ar  
     2     1    25 ar  
     3     1    37 1   
     4     2     3 ar  
     5     2     5 1   
     6     2    25 ar  
     7     3     4 ar  
     8     3    22 1   
     9     4    23 1   
    10     4    24 ar  
    11     5    21 1   
    12     5    26 1   
    13     6     7 ar  
    14     6    11 ar  
    15     6    14 1   
    16     7     8 ar  
    17     7    61 1   
    18     8     9 ar  
    19     8    38 1   
    20     9    10 ar  
    21     9    39 1   
    22    10    11 ar  
    23    10    40 1   
    24    11    12 1   
    25    12    13 1   
    26    12    41 1   
    27    13    14 2   
    28    13    42 1   
    29    14    15 1   
    30    15    16 1   
    31    15    43 1   
    32    15    44 1   
    33    16    17 1   
    34    16    45 1   
    35    16    46 1   
    36    17    18 1   
    37    17    47 1   
    38    18    19 2   
    39    18    20 1   
    40    20    48 1   
    41    20    49 1   
    42    20    60 1   
    43    21    22 2   
    44    21    60 1   
    45    23    50 1   
    46    23    51 1   
    47    26    27 1   
    48    26    28 1   
    49    26    52 1   
    50    27    32 1   
    51    28    29 1   
    52    28    30 1   
    53    28    53 1   
    54    29    54 1   
    55    30    31 1   
    56    30    32 1   
    57    30    55 1   
    58    31    56 1   
    59    32    33 1   
    60    32    57 1   
    61    33    34 1   
    62    33    58 1   
    63    33    59 1   
    64    34    35 1   
    65    35    36 3   
@<TRIPOS>SUBSTRUCTURE
     1 5A8         1 TEMP              0 ****  ****    0 ROOT
