@<TRIPOS>MOLECULE
5A8
   61    65     1     0     0
SMALL
No Charge or Current Charge


@<TRIPOS>ATOM
      1 C2           6.1990     3.2050    -0.3960 ca         1 5A8       0.179900
      2 C4           4.4820     1.7170    -0.1180 ca         1 5A8       0.148500
      3 C5           3.5740     2.7210    -0.3810 ca         1 5A8      -0.089600
      4 C6           4.0730     4.0090    -0.6630 ca         1 5A8       0.443900
      5 N9           3.7420     0.5900     0.1200 na         1 5A8      -0.270300
      6 CBF         -7.4390     0.6780     0.2860 ca         1 5A8      -0.094800
      7 CBK         -7.1470     0.7650     1.6540 ca         1 5A8      -0.062000
      8 CBJ         -8.1540     0.3740     2.5630 ca         1 5A8      -0.139000
      9 CBI         -9.4080    -0.0860     2.0920 ca         1 5A8      -0.090000
     10 CBH         -9.6670    -0.1580     0.7050 ca         1 5A8      -0.127000
     11 CBG         -8.6480     0.2360    -0.1720 ca         1 5A8      -0.046200
     12 NBD         -8.6480     0.2600    -1.5550 na         1 5A8      -0.221700
     13 CBE         -7.4040     0.7320    -2.0290 cc         1 5A8      -0.150100
     14 CBC         -6.6540     0.9890    -0.8860 cd         1 5A8      -0.148400
     15 CBA         -5.2390     1.5100    -0.8720 c3         1 5A8      -0.014200
     16 CAZ         -4.2160     0.4090    -0.5360 c3         1 5A8       0.102000
     17 NAY         -2.8420     0.9190    -0.5140 ns         1 5A8      -0.503900
     18 CAX         -1.7410     0.1620    -0.1850 c          1 5A8       0.608100
     19 OBB         -1.8390    -1.0190     0.1200 o          1 5A8      -0.591100
     20 CAW         -0.4120     0.9220    -0.2330 c3         1 5A8      -0.077400
     21 C8           2.4070     0.9840    -0.0050 cc         1 5A8       0.403700
     22 N7           2.2470     2.2760    -0.3230 nd         1 5A8      -0.578100
     23 N6           3.2630     5.0680    -0.9340 nv         1 5A8      -1.063900
     24 N1           5.3920     4.2590    -0.6680 nb         1 5A8      -0.299000
     25 N3           5.8120     1.9360    -0.1190 nb         1 5A8      -0.207000
     26 CAL          4.2700    -0.7090     0.5520 c5         1 5A8       0.315300
     27 OAM          4.0380    -1.7070    -0.4650 os         1 5A8      -0.430000
     28 CAP          3.7510    -1.3440     1.8830 c5         1 5A8       0.130300
     29 OAQ          4.2960    -0.7570     3.0720 oh         1 5A8      -0.670000
     30 CAO          4.3070    -2.7810     1.6820 c5         1 5A8       0.101300
     31 OAR          5.7260    -2.8110     1.9350 oh         1 5A8      -0.687000
     32 CAN          3.9510    -3.0150     0.1700 c5         1 5A8       0.112300
     33 CAS          2.5310    -3.6160    -0.0500 c3         1 5A8       0.143800
     34 NAT          2.2380    -3.7880    -1.4830 n2         1 5A8      -0.394200
     35 NAU          2.6300    -4.8420    -2.0080 n1         1 5A8       0.223000
     36 NAV          3.0980    -5.7320    -2.5400 n1         1 5A8      -0.080000
     37 H1           7.2710     3.3970    -0.3980 h5         1 5A8       0.047100
     38 H3          -7.9650     0.4270     3.6330 ha         1 5A8       0.111000
     39 H4         -10.1770    -0.3840     2.8010 ha         1 5A8       0.111000
     40 H5         -10.6270    -0.5090     0.3320 ha         1 5A8       0.113000
     41 H6          -9.4300    -0.0200    -2.1390 hn         1 5A8       0.352000
     42 H7          -7.1660     0.8380    -3.0840 h4         1 5A8       0.212000
     43 H8          -4.9900     1.9450    -1.8480 hc         1 5A8       0.045700
     44 H9          -5.1500     2.3200    -0.1380 hc         1 5A8       0.045700
     45 H10         -4.4510    -0.0200     0.4480 h1         1 5A8       0.058700
     46 H11         -4.2850    -0.3930    -1.2830 h1         1 5A8       0.058700
     47 H12         -2.6790     1.8900    -0.7540 hn         1 5A8       0.315500
     48 H13         -0.3130     1.3720    -1.2280 h1         1 5A8       0.092200
     49 H14         -0.4530     1.7250     0.5110 h1         1 5A8       0.092200
     50 H15          3.6470     6.0030    -0.8320 hn         1 5A8       0.502000
     51 H16          2.2730     4.9530    -0.7270 hn         1 5A8       0.502000
     52 H17          5.3550    -0.5660     0.6470 h2         1 5A8       0.123700
     53 H18          2.6550    -1.3520     1.9310 h1         1 5A8       0.059700
     54 H19          5.1520    -1.2360     3.2030 ho         1 5A8       0.510000
     55 H20          3.7910    -3.5020     2.3330 h1         1 5A8       0.052700
     56 H21          6.0300    -3.7440     1.8280 ho         1 5A8       0.505000
     57 H22          4.6810    -3.6860    -0.3040 h1         1 5A8       0.062700
     58 H23          2.4730    -4.5770     0.4780 h1         1 5A8       0.071700
     59 H24          1.7850    -2.9560     0.4100 h1         1 5A8       0.071700
     60 SAA          1.0630    -0.1540     0.1000 ss         1 5A8      -0.103200
     61 H2          -6.1810     1.1200     2.0040 ha         1 5A8       0.113000
@<TRIPOS>BOND
     1     1    24 ar  
     2     1    25 ar  
     3     1    37 1   
     4     2     3 ar  
     5     2     5 1   
     6     2    25 ar  
     7     3     4 ar  
     8     3    22 1   
     9     4    23 1   
    10     4    24 ar  
    11     5    21 1   
    12     5    26 1   
    13     6     7 ar  
    14     6    11 ar  
    15     6    14 1   
    16     7     8 ar  
    17     7    61 1   
    18     8     9 ar  
    19     8    38 1   
    20     9    10 ar  
    21     9    39 1   
    22    10    11 ar  
    23    10    40 1   
    24    11    12 1   
    25    12    13 1   
    26    12    41 1   
    27    13    14 2   
    28    13    42 1   
    29    14    15 1   
    30    15    16 1   
    31    15    43 1   
    32    15    44 1   
    33    16    17 1   
    34    16    45 1   
    35    16    46 1   
    36    17    18 1   
    37    17    47 1   
    38    18    19 2   
    39    18    20 1   
    40    20    48 1   
    41    20    49 1   
    42    20    60 1   
    43    21    22 2   
    44    21    60 1   
    45    23    50 1   
    46    23    51 1   
    47    26    27 1   
    48    26    28 1   
    49    26    52 1   
    50    27    32 1   
    51    28    29 1   
    52    28    30 1   
    53    28    53 1   
    54    29    54 1   
    55    30    31 1   
    56    30    32 1   
    57    30    55 1   
    58    31    56 1   
    59    32    33 1   
    60    32    57 1   
    61    33    34 1   
    62    33    58 1   
    63    33    59 1   
    64    34    35 1   
    65    35    36 3   
@<TRIPOS>SUBSTRUCTURE
     1 5A8         1 TEMP              0 ****  ****    0 ROOT
