@<TRIPOS>MOLECULE
5A9
   57    60     1     0     0
SMALL
bcc


@<TRIPOS>ATOM
      1 C4           5.2480    -1.7290     0.6090 ca         1 5A9       0.472800
      2 C5           4.3790    -2.7850     0.8110 ca         1 5A9      -0.221200
      3 C6           4.9660    -4.0260     1.1100 ca         1 5A9       0.777200
      4 C8           3.1540    -1.1130     0.3870 cc         1 5A9       0.406700
      5 N1           6.3020    -4.0870     1.1760 nb         1 5A9      -0.825000
      6 N3           6.5740    -1.7710     0.6680 nb         1 5A9      -0.739000
      7 CBC         -6.3530    -0.7780    -0.0050 ca         1 5A9      -0.096000
      8 CBD         -7.5930    -0.2040    -0.2410 ca         1 5A9      -0.014900
      9 BR          -8.6340     0.3780     1.2270 br         1 5A9      -0.094100
     10 CBE         -8.0880    -0.0500    -1.5270 ca         1 5A9      -0.099000
     11 CAX         -7.3120    -0.4880    -2.5910 ca         1 5A9      -0.125000
     12 CAW         -6.0690    -1.0640    -2.3700 ca         1 5A9      -0.112000
     13 CAV         -5.5790    -1.2150    -1.0770 ca         1 5A9      -0.083300
     14 CAM         -4.2160    -1.7980    -0.8290 c3         1 5A9      -0.050100
     15 CAL         -3.1560    -0.7020    -0.8240 c3         1 5A9       0.104000
     16 NAK         -1.8470    -1.2680    -0.5700 ns         1 5A9      -0.570900
     17 CAJ         -0.7770    -0.5110    -0.3080 c          1 5A9       0.677100
     18 OAB         -0.8040     0.7100    -0.2610 o          1 5A9      -0.593100
     19 CAI          0.5040    -1.2820    -0.0530 c3         1 5A9      -0.122300
     20 SAH          1.8050    -0.0410     0.1330 ss         1 5A9      -0.073300
     21 N7           3.0760    -2.3800     0.6740 nd         1 5A9      -0.576100
     22 N6           4.2500    -5.1300     1.3340 nv         1 5A9      -0.956500
     23 C2           7.0130    -2.9850     0.9580 ca         1 5A9       0.709900
     24 N9           4.4490    -0.6500     0.3330 na         1 5A9      -0.245000
     25 CAR          4.9370     0.6550    -0.0420 c5         1 5A9       0.247800
     26 OAS          4.1550     1.6180     0.6130 os         1 5A9      -0.378600
     27 CAZ          4.8890     0.9630    -1.5550 c5         1 5A9       0.076100
     28 OAY          6.1700     1.3450    -1.9710 oh         1 5A9      -0.579800
     29 CBA          3.9020     2.1470    -1.6370 c5         1 5A9       0.064100
     30 OBF          4.2680     3.1020    -2.5940 oh         1 5A9      -0.588800
     31 CAT          3.9960     2.7410    -0.2340 c5         1 5A9       0.125100
     32 CAU          2.7690     3.5290     0.1750 c3         1 5A9       0.159800
     33 NBB          2.8660     4.0620     1.5350 n2         1 5A9      -0.410200
     34 NBG          3.5180     5.0810     1.6740 n1         1 5A9       0.225000
     35 NBI          4.0930     6.0180     1.9130 n1         1 5A9      -0.075000
     36 H2          -9.0560     0.3970    -1.7070 ha         1 5A9       0.150000
     37 H3          -7.6860    -0.3770    -3.6000 ha         1 5A9       0.137000
     38 H4          -5.4790    -1.4050    -3.2120 ha         1 5A9       0.134000
     39 H5          -4.2010    -2.3240     0.1280 hc         1 5A9       0.053200
     40 H6          -3.9830    -2.5320    -1.6050 hc         1 5A9       0.053200
     41 H7          -3.1640    -0.1730    -1.7820 h1         1 5A9       0.059200
     42 H8          -3.3890     0.0330    -0.0500 h1         1 5A9       0.059200
     43 H9          -1.7360    -2.2670    -0.6370 hn         1 5A9       0.317500
     44 H10          0.4170    -1.8800     0.8550 h1         1 5A9       0.094200
     45 H11          0.7260    -1.9590    -0.8790 h1         1 5A9       0.094200
     46 H12          3.2480    -5.1240     1.2580 hn         1 5A9       0.450300
     47 H13          4.7100    -6.0060     1.5090 hn         1 5A9       0.450300
     48 H14          8.0890    -3.1010     1.0260 h5         1 5A9       0.049100
     49 H15          5.9810     0.6910     0.2880 h2         1 5A9       0.122700
     50 H16          4.5290     0.0940    -2.1210 h1         1 5A9       0.070700
     51 H17          6.0630     2.0720    -2.6000 ho         1 5A9       0.426000
     52 H18          2.8910     1.7660    -1.8150 h1         1 5A9       0.072700
     53 H19          3.8250     2.9010    -3.4240 ho         1 5A9       0.420000
     54 H20          4.8860     3.3870    -0.1810 h1         1 5A9       0.065700
     55 H21          2.6090     4.3250    -0.5580 h1         1 5A9       0.079200
     56 H22          1.8880     2.8890     0.1660 h1         1 5A9       0.079200
     57 H1          -5.9810    -0.8950     1.0060 ha         1 5A9       0.148000
@<TRIPOS>BOND
     1     1     2 ar  
     2     1     6 ar  
     3     1    24 1   
     4     2     3 ar  
     5     2    21 1   
     6     3     5 ar  
     7     3    22 1   
     8     4    20 1   
     9     4    21 2   
    10     4    24 1   
    11     5    23 ar  
    12     6    23 ar  
    13     7     8 ar  
    14     7    13 ar  
    15     7    57 1   
    16     8     9 1   
    17     8    10 ar  
    18    10    11 ar  
    19    10    36 1   
    20    11    12 ar  
    21    11    37 1   
    22    12    13 ar  
    23    12    38 1   
    24    13    14 1   
    25    14    15 1   
    26    14    39 1   
    27    14    40 1   
    28    15    16 1   
    29    15    41 1   
    30    15    42 1   
    31    16    17 1   
    32    16    43 1   
    33    17    18 2   
    34    17    19 1   
    35    19    20 1   
    36    19    44 1   
    37    19    45 1   
    38    22    46 1   
    39    22    47 1   
    40    23    48 1   
    41    24    25 1   
    42    25    26 1   
    43    25    27 1   
    44    25    49 1   
    45    26    31 1   
    46    27    28 1   
    47    27    29 1   
    48    27    50 1   
    49    28    51 1   
    50    29    30 1   
    51    29    31 1   
    52    29    52 1   
    53    30    53 1   
    54    31    32 1   
    55    31    54 1   
    56    32    33 1   
    57    32    55 1   
    58    32    56 1   
    59    33    34 1   
    60    34    35 3   
@<TRIPOS>SUBSTRUCTURE
     1 5A9         1 TEMP              0 ****  ****    0 ROOT
