@<TRIPOS>MOLECULE
5A9
   57    60     1     0     0
SMALL
No Charge or Current Charge


@<TRIPOS>ATOM
      1 C4           5.1610    -1.6730     0.6280 ca         1 5A9       0.144500
      2 C5           4.2570    -2.7000     0.7970 ca         1 5A9      -0.090600
      3 C6           4.7370    -3.9290     1.2970 ca         1 5A9       0.448900
      4 C8           3.1270    -1.0720     0.0300 cc         1 5A9       0.406700
      5 N1           6.0340    -4.1010     1.5940 nb         1 5A9      -0.299000
      6 N3           6.4690    -1.8140     0.9200 nb         1 5A9      -0.213000
      7 CBC         -6.7060    -0.9560    -0.0920 ca         1 5A9      -0.078000
      8 CBD         -8.0120    -0.5440    -0.4060 ca         1 5A9      -0.014900
      9 Br          -9.0950     0.2910     0.9320 br         1 5A9      -0.094100
     10 CBE         -8.5260    -0.7430    -1.6980 ca         1 5A9      -0.081000
     11 CAX         -7.7280    -1.3550    -2.6800 ca         1 5A9      -0.107000
     12 CAW         -6.4200    -1.7670    -2.3680 ca         1 5A9      -0.094000
     13 CAV         -5.9030    -1.5720    -1.0720 ca         1 5A9      -0.083300
     14 CAM         -4.4840    -2.0120    -0.7360 c3         1 5A9      -0.050100
     15 CAL         -3.4620    -0.8850    -0.9740 c3         1 5A9       0.104000
     16 NAK         -2.0970    -1.3060    -0.6500 ns         1 5A9      -0.503900
     17 CAJ         -0.9920    -0.4930    -0.7540 c          1 5A9       0.610100
     18 OAB         -1.0780     0.6670    -1.1360 o          1 5A9      -0.593100
     19 CAI          0.3270    -1.1630    -0.3560 c3         1 5A9      -0.074400
     20 SAH          1.7960    -0.0320    -0.4740 ss         1 5A9      -0.121200
     21 N7           2.9560    -2.3400     0.4280 nd         1 5A9      -0.576100
     22 N6           3.9280    -5.0040     1.4980 nv         1 5A9      -1.066900
     23 C2           6.8390    -3.0300     1.3910 ca         1 5A9       0.183900
     24 N9           4.4440    -0.6150     0.1370 na         1 5A9      -0.274300
     25 CAR          4.9970     0.6750    -0.2880 c5         1 5A9       0.300300
     26 OAS          4.5880     1.7070     0.6350 os         1 5A9      -0.425000
     27 CAZ          4.6650     1.2110    -1.7350 c5         1 5A9       0.099300
     28 OAY          5.8380     1.4890    -2.5080 oh         1 5A9      -0.702000
     29 CBA          3.9680     2.5780    -1.4370 c5         1 5A9       0.087300
     30 OBF          4.2270     3.5220    -2.4970 oh         1 5A9      -0.711000
     31 CAT          4.6390     2.9540    -0.0820 c5         1 5A9       0.148300
     32 CAU          3.9300     4.0820     0.7140 c3         1 5A9       0.159800
     33 NBB          4.6300     4.3650     1.9810 n2         1 5A9      -0.410200
     34 NBG          5.5740     5.1700     1.9260 n1         1 5A9       0.225000
     35 NBI          6.5240     5.7930     1.8660 n1         1 5A9      -0.075000
     36 H2          -9.5370    -0.4230    -1.9390 ha         1 5A9       0.132000
     37 H3          -8.1220    -1.5090    -3.6820 ha         1 5A9       0.119000
     38 H4          -5.8090    -2.2380    -3.1350 ha         1 5A9       0.116000
     39 H5          -4.4280    -2.3330     0.3110 hc         1 5A9       0.053200
     40 H6          -4.2060    -2.8830    -1.3420 hc         1 5A9       0.053200
     41 H7          -3.4980    -0.5760    -2.0280 h1         1 5A9       0.059200
     42 H8          -3.7240    -0.0180    -0.3540 h1         1 5A9       0.059200
     43 H9          -1.9440    -2.2550    -0.3260 hn         1 5A9       0.317500
     44 H10          0.2290    -1.5210     0.6750 h1         1 5A9       0.094200
     45 H11          0.4810    -2.0260    -1.0130 h1         1 5A9       0.094200
     46 H12          3.0040    -4.9580     1.0770 hn         1 5A9       0.505500
     47 H13          4.3570    -5.9240     1.5580 hn         1 5A9       0.505500
     48 H14          7.8930    -3.1590     1.6300 h5         1 5A9       0.049100
     49 H15          6.0860     0.5590    -0.2190 h2         1 5A9       0.122700
     50 H16          3.9960     0.5310    -2.2810 h1         1 5A9       0.070700
     51 H17          5.6300     2.3950    -2.8650 ho         1 5A9       0.525000
     52 H18          2.8870     2.4360    -1.2980 h1         1 5A9       0.072700
     53 H19          3.4410     4.1190    -2.5720 ho         1 5A9       0.519000
     54 H20          5.6920     3.2340    -0.2330 h1         1 5A9       0.065700
     55 H21          3.8800     4.9800     0.0830 h1         1 5A9       0.079200
     56 H22          2.8960     3.7700     0.9130 h1         1 5A9       0.079200
     57 H1          -6.3170    -0.7950     0.9120 ha         1 5A9       0.130000
@<TRIPOS>BOND
     1     1     2 ar  
     2     1     6 ar  
     3     1    24 1   
     4     2     3 ar  
     5     2    21 1   
     6     3     5 ar  
     7     3    22 1   
     8     4    20 1   
     9     4    21 2   
    10     4    24 1   
    11     5    23 ar  
    12     6    23 ar  
    13     7     8 ar  
    14     7    13 ar  
    15     7    57 1   
    16     8     9 1   
    17     8    10 ar  
    18    10    11 ar  
    19    10    36 1   
    20    11    12 ar  
    21    11    37 1   
    22    12    13 ar  
    23    12    38 1   
    24    13    14 1   
    25    14    15 1   
    26    14    39 1   
    27    14    40 1   
    28    15    16 1   
    29    15    41 1   
    30    15    42 1   
    31    16    17 1   
    32    16    43 1   
    33    17    18 2   
    34    17    19 1   
    35    19    20 1   
    36    19    44 1   
    37    19    45 1   
    38    22    46 1   
    39    22    47 1   
    40    23    48 1   
    41    24    25 1   
    42    25    26 1   
    43    25    27 1   
    44    25    49 1   
    45    26    31 1   
    46    27    28 1   
    47    27    29 1   
    48    27    50 1   
    49    28    51 1   
    50    29    30 1   
    51    29    31 1   
    52    29    52 1   
    53    30    53 1   
    54    31    32 1   
    55    31    54 1   
    56    32    33 1   
    57    32    55 1   
    58    32    56 1   
    59    33    34 1   
    60    34    35 3   
@<TRIPOS>SUBSTRUCTURE
     1 5A9         1 TEMP              0 ****  ****    0 ROOT
