@<TRIPOS>MOLECULE
5AC
   15    15     1     0     0
SMALL
abcg2


@<TRIPOS>ATOM
      1 NAA         17.8670    10.6520   -23.9890 nt         1 5AC      -0.591000
      2 CAG         16.8470    10.0080   -24.5990 c          1 5AC       0.552600
      3 OAC         15.8240     9.6520   -23.9850 o          1 5AC      -0.665100
      4 CAI         17.0080     9.7510   -26.0180 cc         1 5AC       0.084500
      5 CAH         16.0900     9.1030   -26.8350 cd         1 5AC       0.263000
      6 NAB         14.9080     8.4850   -26.5380 nv         1 5AC      -1.060000
      7 NAF         16.6430     9.1190   -28.0830 na         1 5AC      -0.352500
      8 CAD         17.8570     9.7620   -27.9970 cd         1 5AC       0.391400
      9 NAE         18.1060    10.1490   -26.7780 nc         1 5AC      -0.642000
     10 HNAA        17.7910    10.8990   -23.0170 hn         1 5AC       0.322500
     11 HNAB        18.6640    10.9630   -24.5210 hn         1 5AC       0.322500
     12 HNAC        14.5500     8.7480   -25.6290 hn         1 5AC       0.480000
     13 HNAD        14.2140     8.4610   -27.2720 hn         1 5AC       0.480000
     14 HNAF        16.2330     8.7270   -28.9170 hn         1 5AC       0.355000
     15 HAD         18.4860     9.9070   -28.8610 h5         1 5AC       0.060100
@<TRIPOS>BOND
     1     1     2 1   
     2     1    10 1   
     3     1    11 1   
     4     2     3 2   
     5     2     4 1   
     6     4     5 2   
     7     4     9 1   
     8     5     6 1   
     9     5     7 1   
    10     6    12 1   
    11     6    13 1   
    12     7     8 1   
    13     7    14 1   
    14     8     9 2   
    15     8    15 1   
@<TRIPOS>SUBSTRUCTURE
     1 5AC         1 TEMP              0 ****  ****    0 ROOT
