@<TRIPOS>MOLECULE
5AC
   15    15     1     0     0
SMALL
No Charge or Current Charge


@<TRIPOS>ATOM
      1 NAA         17.8680    10.6720   -23.9560 nt         1 5AC      -0.591000
      2 CAG         16.8450    10.0280   -24.5630 c          1 5AC       0.552600
      3 OAC         15.8710     9.6990   -23.9000 o          1 5AC      -0.665100
      4 CAI         17.0290     9.7870   -26.0320 cc         1 5AC       0.084500
      5 CAH         16.1000     9.1460   -26.8190 cd         1 5AC       0.263000
      6 NAB         14.8800     8.5810   -26.5810 nv         1 5AC      -1.060000
      7 NAF         16.6230     9.1270   -28.0790 na         1 5AC      -0.352500
      8 CAD         17.8550     9.7540   -28.0280 cd         1 5AC       0.391400
      9 NAE         18.1210    10.1640   -26.7920 nc         1 5AC      -0.642000
     10 HNAA        17.8200    10.8720   -22.9690 hn         1 5AC       0.322500
     11 HNAB        18.6700    10.9440   -24.5060 hn         1 5AC       0.322500
     12 HNAC        14.4570     8.6950   -25.6580 hn         1 5AC       0.480000
     13 HNAD        14.2630     8.3200   -27.3490 hn         1 5AC       0.480000
     14 HNAF        16.2010     8.7240   -28.9020 hn         1 5AC       0.355000
     15 HAD         18.4840     9.8710   -28.9040 h5         1 5AC       0.060100
@<TRIPOS>BOND
     1     1     2 1   
     2     1    10 1   
     3     1    11 1   
     4     2     3 2   
     5     2     4 1   
     6     4     5 2   
     7     4     9 1   
     8     5     6 1   
     9     5     7 1   
    10     6    12 1   
    11     6    13 1   
    12     7     8 1   
    13     7    14 1   
    14     8     9 2   
    15     8    15 1   
@<TRIPOS>SUBSTRUCTURE
     1 5AC         1 TEMP              0 ****  ****    0 ROOT
