@<TRIPOS>MOLECULE
5AD
   31    33     1     0     0
SMALL
No Charge or Current Charge


@<TRIPOS>ATOM
      1 N1          -0.3950    -1.0150     4.0940 nb         1 5AD      -0.303000
      2 C2          -1.1780    -1.5600     3.1310 ca         1 5AD       0.181900
      3 N3          -1.1780    -1.2470     1.8120 nb         1 5AD      -0.222000
      4 C4          -0.3010    -0.2940     1.4400 ca         1 5AD       0.120500
      5 N9          -0.0250     0.2740     0.2290 na         1 5AD      -0.311300
      6 C8           0.9810     1.2260     0.4320 cc         1 5AD       0.413700
      7 N7           1.3510     1.2820     1.7260 nd         1 5AD      -0.558100
      8 C5           0.5370     0.3220     2.3350 ca         1 5AD      -0.099600
      9 C6           0.4680    -0.0710     3.6880 ca         1 5AD       0.450900
     10 N6           1.2520     0.4800     4.6530 nv         1 5AD      -1.063900
     11 C1          -0.6840    -0.0280    -1.0430 c5         1 5AD       0.321300
     12 C7          -0.8300     1.1520    -2.0820 c5         1 5AD       0.144300
     13 C3           0.3130     0.8150    -3.0830 c5         1 5AD       0.092300
     14 C9           0.1960    -0.7380    -3.0970 c5         1 5AD       0.128300
     15 C10          1.3970    -1.4880    -3.7070 c3         1 5AD      -0.100100
     16 O4           0.0820    -1.0700    -1.7020 os         1 5AD      -0.445000
     17 O2          -2.0740     1.1400    -2.7980 oh         1 5AD      -0.708000
     18 O3           0.0710     1.4250    -4.3660 oh         1 5AD      -0.711000
     19 H2          -1.8820    -2.3270     3.4490 h5         1 5AD       0.047100
     20 H8           1.3910     1.8260    -0.3720 h5         1 5AD       0.073800
     21 HN61         0.9560     0.3800     5.6210 hn         1 5AD       0.506000
     22 HN62         1.7450     1.3370     4.4130 hn         1 5AD       0.506000
     23 H1          -1.6830    -0.4030    -0.7850 h2         1 5AD       0.123700
     24 H6          -0.6730     2.1320    -1.6080 h1         1 5AD       0.085700
     25 H3           1.2870     1.1270    -2.6800 h1         1 5AD       0.054700
     26 H4          -0.7210    -1.0620    -3.6110 h1         1 5AD       0.076700
     27 H5'1         1.2640    -2.5730    -3.6200 hc         1 5AD       0.047367
     28 H5'2         1.5080    -1.2520    -4.7720 hc         1 5AD       0.047367
     29 H5'3         2.3320    -1.2190    -3.2010 hc         1 5AD       0.047367
     30 HO2         -1.7840     1.3460    -3.7250 ho         1 5AD       0.531000
     31 HO3          0.9000     1.3390    -4.8970 ho         1 5AD       0.520000
@<TRIPOS>BOND
     1     1     2 ar  
     2     1     9 ar  
     3     2     3 ar  
     4     2    19 1   
     5     3     4 ar  
     6     4     5 1   
     7     4     8 ar  
     8     5     6 1   
     9     5    11 1   
    10     6     7 2   
    11     6    20 1   
    12     7     8 1   
    13     8     9 ar  
    14     9    10 1   
    15    10    21 1   
    16    10    22 1   
    17    11    12 1   
    18    11    16 1   
    19    11    23 1   
    20    12    13 1   
    21    12    17 1   
    22    12    24 1   
    23    13    14 1   
    24    13    18 1   
    25    13    25 1   
    26    14    15 1   
    27    14    16 1   
    28    14    26 1   
    29    15    27 1   
    30    15    28 1   
    31    15    29 1   
    32    17    30 1   
    33    18    31 1   
@<TRIPOS>SUBSTRUCTURE
     1 5AD         1 TEMP              0 ****  ****    0 ROOT
