@<TRIPOS>MOLECULE
5AD
   31    33     1     0     0
SMALL
abcg2


@<TRIPOS>ATOM
      1 N1          -0.8280     0.3090     3.7860 nb         1 5AD      -0.303000
      2 C2          -1.7420    -0.0220     2.8780 ca         1 5AD       0.181900
      3 N3          -1.5610    -0.3380     1.6070 nb         1 5AD      -0.222000
      4 C4          -0.2720    -0.2990     1.2710 ca         1 5AD       0.120500
      5 N9           0.2880    -0.5600     0.0560 na         1 5AD      -0.311300
      6 C8           1.6370    -0.3950     0.2140 cc         1 5AD       0.413700
      7 N7           1.9750    -0.0430     1.4210 nd         1 5AD      -0.558100
      8 C5           0.7890     0.0240     2.1020 ca         1 5AD      -0.099600
      9 C6           0.4620     0.3430     3.4330 ca         1 5AD       0.450900
     10 N6           1.3810     0.6630     4.3450 nv         1 5AD      -1.063900
     11 C1          -0.4450    -0.9720    -1.1390 c5         1 5AD       0.321300
     12 C7          -1.2430     0.1900    -1.7310 c5         1 5AD       0.144300
     13 C3          -0.2070     0.7890    -2.6780 c5         1 5AD       0.092300
     14 C9           0.4850    -0.4660    -3.2170 c5         1 5AD       0.128300
     15 C10          1.9020    -0.2530    -3.6950 c3         1 5AD      -0.100100
     16 O4           0.4650    -1.3800    -2.1110 os         1 5AD      -0.445000
     17 O2          -2.3260    -0.3720    -2.4220 oh         1 5AD      -0.708000
     18 O3          -0.8280     1.5780    -3.6490 oh         1 5AD      -0.711000
     19 H2          -2.7680    -0.0320     3.2310 h5         1 5AD       0.047100
     20 H8           2.3300    -0.5570    -0.5960 h5         1 5AD       0.073800
     21 HN61         1.1020     0.9400     5.2700 hn         1 5AD       0.506000
     22 HN62         2.3500     0.7530     4.0940 hn         1 5AD       0.506000
     23 H1          -1.0990    -1.7990    -0.8490 h2         1 5AD       0.123700
     24 H6          -1.5730     0.8990    -0.9630 h1         1 5AD       0.085700
     25 H3           0.5120     1.3730    -2.0840 h1         1 5AD       0.054700
     26 H4          -0.1170    -0.8850    -4.0310 h1         1 5AD       0.076700
     27 H5'1         2.3640    -1.1880    -4.0120 hc         1 5AD       0.047367
     28 H5'2         1.9000     0.4160    -4.5570 hc         1 5AD       0.047367
     29 H5'3         2.5250     0.1990    -2.9210 hc         1 5AD       0.047367
     30 HO2         -2.6760     0.2860    -3.0320 ho         1 5AD       0.531000
     31 HO3         -0.1580     2.0570    -4.1470 ho         1 5AD       0.520000
@<TRIPOS>BOND
     1     1     2 ar  
     2     1     9 ar  
     3     2     3 ar  
     4     2    19 1   
     5     3     4 ar  
     6     4     5 1   
     7     4     8 ar  
     8     5     6 1   
     9     5    11 1   
    10     6     7 2   
    11     6    20 1   
    12     7     8 1   
    13     8     9 ar  
    14     9    10 1   
    15    10    21 1   
    16    10    22 1   
    17    11    12 1   
    18    11    16 1   
    19    11    23 1   
    20    12    13 1   
    21    12    17 1   
    22    12    24 1   
    23    13    14 1   
    24    13    18 1   
    25    13    25 1   
    26    14    15 1   
    27    14    16 1   
    28    14    26 1   
    29    15    27 1   
    30    15    28 1   
    31    15    29 1   
    32    17    30 1   
    33    18    31 1   
@<TRIPOS>SUBSTRUCTURE
     1 5AD         1 TEMP              0 ****  ****    0 ROOT
