@<TRIPOS>MOLECULE
5AE
   29    30     1     0     0
SMALL
bcc


@<TRIPOS>ATOM
      1 O2          -1.7730    -2.0500     1.0230 o          1 5AE      -0.591500
      2 C2          -1.9390    -0.9430     0.5460 c          1 5AE       0.860900
      3 N3          -3.1470    -0.4180     0.2710 nc         1 5AE      -0.793100
      4 C4          -3.2250     0.7920    -0.2400 cd         1 5AE       0.916200
      5 N4          -4.4180     1.2980    -0.5210 nv         1 5AE      -0.906800
      6 N5          -2.1630     1.6090    -0.5130 nd         1 5AE      -0.813000
      7 N1          -0.8170    -0.1300     0.2520 n          1 5AE      -0.430300
      8 C6          -1.0090     1.1000    -0.2490 cc         1 5AE       0.554800
      9 C1           0.5330    -0.6380     0.4910 c5         1 5AE       0.301500
     10 O4           1.3330     0.3920     0.9910 os         1 5AE      -0.390600
     11 C8           2.6090     0.4080     0.3390 c5         1 5AE       0.105100
     12 C5           2.7430     1.6000    -0.5890 c3         1 5AE       0.121400
     13 O5           2.4810     2.7700     0.1440 oh         1 5AE      -0.577800
     14 C3           2.7000    -0.9220    -0.4070 c5         1 5AE       0.077100
     15 O3           3.0870    -1.9820     0.4260 oh         1 5AE      -0.558800
     16 C7           1.2320    -1.1320    -0.7780 c5         1 5AE       0.115100
     17 O1           0.8400    -2.4340    -1.0690 oh         1 5AE      -0.538800
     18 H1          -5.2530     0.7630    -0.3550 hn         1 5AE       0.455300
     19 H2          -4.5030     2.2160    -0.9210 hn         1 5AE       0.455300
     20 H3          -0.1290     1.7080    -0.4220 h5         1 5AE       0.056800
     21 H4           0.4300    -1.4500     1.2130 h2         1 5AE       0.137700
     22 H5           3.3760     0.4820     1.1170 h1         1 5AE       0.088700
     23 H6           3.7620     1.5860    -0.9980 h1         1 5AE       0.021200
     24 H7           2.0610     1.5000    -1.4450 h1         1 5AE       0.021200
     25 H8           2.5650     3.5210    -0.4500 ho         1 5AE       0.408000
     26 H9           3.3440    -0.8460    -1.2930 h1         1 5AE       0.050700
     27 H10          3.9890    -1.8220     0.7220 ho         1 5AE       0.408000
     28 H11          0.9920    -0.4470    -1.6040 h1         1 5AE       0.035700
     29 H12          1.1840    -2.6720    -1.9360 ho         1 5AE       0.411000
@<TRIPOS>BOND
     1     1     2 2   
     2     2     3 1   
     3     2     7 1   
     4     3     4 2   
     5     4     5 1   
     6     4     6 1   
     7     5    18 1   
     8     5    19 1   
     9     6     8 2   
    10     7     8 1   
    11     7     9 1   
    12     8    20 1   
    13     9    10 1   
    14     9    16 1   
    15     9    21 1   
    16    10    11 1   
    17    11    12 1   
    18    11    14 1   
    19    11    22 1   
    20    12    13 1   
    21    12    23 1   
    22    12    24 1   
    23    13    25 1   
    24    14    15 1   
    25    14    16 1   
    26    14    26 1   
    27    15    27 1   
    28    16    17 1   
    29    16    28 1   
    30    17    29 1   
@<TRIPOS>SUBSTRUCTURE
     1 5AE         1 TEMP              0 ****  ****    0 ROOT
