@<TRIPOS>MOLECULE
5AE
   29    30     1     0     0
SMALL
No Charge or Current Charge


@<TRIPOS>ATOM
      1 O2          -1.7930    -1.8180     1.4070 o          1 5AE      -0.516000
      2 C2          -1.9450    -0.7960     0.7600 c          1 5AE       0.718400
      3 N3          -3.1840    -0.3200     0.5100 nc         1 5AE      -0.793100
      4 C4          -3.3510     0.7570    -0.1710 cd         1 5AE       0.916200
      5 N4          -4.5720     1.1300    -0.3880 nv         1 5AE      -1.017200
      6 N5          -2.3840     1.5050    -0.7450 nd         1 5AE      -0.813000
      7 N1          -0.8970    -0.0690     0.2510 n          1 5AE      -0.363300
      8 C6          -1.1630     1.0490    -0.4970 cc         1 5AE       0.554800
      9 C1           0.4890    -0.5570     0.4240 c5         1 5AE       0.324700
     10 O4           1.3270     0.4730     0.9840 os         1 5AE      -0.437000
     11 C8           2.6430     0.3890     0.3610 c5         1 5AE       0.128300
     12 C5           2.9130     1.6910    -0.4500 c3         1 5AE       0.144600
     13 O5           3.1210     2.8160     0.4210 oh         1 5AE      -0.700000
     14 C3           2.6070    -0.9050    -0.5350 c5         1 5AE       0.100300
     15 O3           2.9160    -2.1060     0.1990 oh         1 5AE      -0.681000
     16 C7           1.1150    -0.8990    -0.9700 c5         1 5AE       0.138300
     17 O1           0.7300    -2.1740    -1.4980 oh         1 5AE      -0.661000
     18 H1          -5.2250     0.3680    -0.2960 hn         1 5AE       0.510500
     19 H2          -4.6680     1.6970    -1.2160 hn         1 5AE       0.510500
     20 H3          -0.2950     1.5690    -0.8830 h5         1 5AE       0.056800
     21 H4           0.4960    -1.4400     1.0770 h2         1 5AE       0.137700
     22 H5           3.4100     0.3060     1.1430 h1         1 5AE       0.088700
     23 H6           3.8060     1.5350    -1.0710 h1         1 5AE       0.021200
     24 H7           2.0700     1.8820    -1.1280 h1         1 5AE       0.021200
     25 H8           3.2710     3.6050    -0.1510 ho         1 5AE       0.507000
     26 H9           3.2750    -0.8090    -1.4040 h1         1 5AE       0.050700
     27 H10          3.8830    -2.0980     0.3970 ho         1 5AE       0.507000
     28 H11          0.9280    -0.1100    -1.7100 h1         1 5AE       0.035700
     29 H12          1.3600    -2.8110    -1.0790 ho         1 5AE       0.510000
@<TRIPOS>BOND
     1     1     2 2   
     2     2     3 1   
     3     2     7 1   
     4     3     4 2   
     5     4     5 1   
     6     4     6 1   
     7     5    18 1   
     8     5    19 1   
     9     6     8 2   
    10     7     8 1   
    11     7     9 1   
    12     8    20 1   
    13     9    10 1   
    14     9    16 1   
    15     9    21 1   
    16    10    11 1   
    17    11    12 1   
    18    11    14 1   
    19    11    22 1   
    20    12    13 1   
    21    12    23 1   
    22    12    24 1   
    23    13    25 1   
    24    14    15 1   
    25    14    16 1   
    26    14    26 1   
    27    15    27 1   
    28    16    17 1   
    29    16    28 1   
    30    17    29 1   
@<TRIPOS>SUBSTRUCTURE
     1 5AE         1 TEMP              0 ****  ****    0 ROOT
