@<TRIPOS>MOLECULE
5AF
   73    75     1     0     0
SMALL
bcc


@<TRIPOS>ATOM
      1 C1           9.5940     2.0110    -0.9630 c3         1 5AF      -0.091850
      2 C5           9.5910     0.9370     0.1160 c3         1 5AF      -0.082900
      3 C8           8.3380     0.0590     0.1450 c3         1 5AF       0.200000
      4 C9           8.5400    -1.1110     1.1100 c3         1 5AF      -0.082900
      5 C10          7.4700    -2.1930     1.0270 c3         1 5AF      -0.091850
      6 N17          7.1520     0.8190     0.5320 n7         1 5AF      -0.863200
      7 C19          6.3410     1.4260    -0.5070 c3         1 5AF       0.459000
      8 N20          6.3050     2.8660    -0.3310 n8         1 5AF      -0.902300
      9 C23          4.9770     0.7460    -0.5620 ca         1 5AF      -0.111800
     10 C28          3.8110     1.3620    -0.1290 ca         1 5AF      -0.118500
     11 C30          2.5910     0.7010    -0.1600 ca         1 5AF      -0.111500
     12 C24          4.8850    -0.5640    -1.0410 ca         1 5AF      -0.118500
     13 C26          3.6760    -1.2290    -1.0810 ca         1 5AF      -0.111500
     14 C32          2.5030    -0.6070    -0.6370 ca         1 5AF      -0.119000
     15 C33          1.2370    -1.3140    -0.6900 cc         1 5AF       0.304700
     16 O38          0.1210    -0.6230    -0.3710 os         1 5AF      -0.325800
     17 C34          0.8920    -2.5950    -1.0060 cd         1 5AF      -0.253300
     18 C36         -0.5180    -2.6790    -0.8700 cd         1 5AF      -0.253300
     19 C39         -0.9450    -1.4440    -0.4800 cc         1 5AF       0.304700
     20 C40         -2.2530    -0.8920    -0.1820 ca         1 5AF      -0.119000
     21 C45         -3.3920    -1.6980    -0.2670 ca         1 5AF      -0.111500
     22 C47         -4.6470    -1.1880     0.0100 ca         1 5AF      -0.118500
     23 C41         -2.4210     0.4420     0.1940 ca         1 5AF      -0.111500
     24 C43         -3.6820     0.9450     0.4760 ca         1 5AF      -0.118500
     25 C49         -4.8180     0.1450     0.3890 ca         1 5AF      -0.111800
     26 C50         -6.1960     0.6770     0.7460 c3         1 5AF       0.459000
     27 N51         -6.1910     2.1310     0.7230 n8         1 5AF      -0.902300
     28 N54         -7.2000    -0.0030    -0.0460 n7         1 5AF      -0.863200
     29 C56         -8.5900     0.1400     0.3790 c3         1 5AF       0.200000
     30 C65         -9.4790     0.6380    -0.7610 c3         1 5AF      -0.082900
     31 C68         -9.1310     2.0280    -1.2790 c3         1 5AF      -0.091850
     32 C58         -9.1250    -1.1840     0.9280 c3         1 5AF      -0.082900
     33 C61         -8.3370    -1.7310     2.1080 c3         1 5AF      -0.091850
     34 H2           9.5020     1.5660    -1.9570 hc         1 5AF       0.034367
     35 H4          10.5270     2.5760    -0.9460 hc         1 5AF       0.034367
     36 H3           8.7720     2.7140    -0.8340 hc         1 5AF       0.034367
     37 H6          10.4600     0.2870    -0.0290 hc         1 5AF       0.044200
     38 H7           9.7110     1.3970     1.1020 hc         1 5AF       0.044200
     39 H16          8.2070    -0.3700    -0.8630 h1         1 5AF       0.025200
     40 H15          8.6060    -0.7220     2.1320 hc         1 5AF       0.044200
     41 H14          9.5120    -1.5600     0.8950 hc         1 5AF       0.044200
     42 H11          6.4760    -1.8290     1.2950 hc         1 5AF       0.034367
     43 H13          7.7000    -3.0180     1.7020 hc         1 5AF       0.034367
     44 H12          7.4030    -2.6010     0.0170 hc         1 5AF       0.034367
     45 H18          6.5700     0.2800     1.1550 hn         1 5AF       0.372300
     46 H19          6.8180     1.2450    -1.4770 h2         1 5AF       0.071700
     47 H21          5.6940     3.2920    -1.0180 hn         1 5AF       0.345300
     48 H22          5.9260     3.0950     0.5810 hn         1 5AF       0.345300
     49 H29          3.8370     2.3800     0.2380 ha         1 5AF       0.140000
     50 H31          1.7080     1.2180     0.1920 ha         1 5AF       0.137750
     51 H25          5.7760    -1.0700    -1.3950 ha         1 5AF       0.140000
     52 H27          3.6430    -2.2390    -1.4700 ha         1 5AF       0.137750
     53 H35          1.5580    -3.3920    -1.2950 ha         1 5AF       0.159500
     54 H37         -1.1310    -3.5490    -1.0430 ha         1 5AF       0.159500
     55 H46         -3.2990    -2.7380    -0.5540 ha         1 5AF       0.137750
     56 H48         -5.5130    -1.8300    -0.0700 ha         1 5AF       0.140000
     57 H42         -1.5680     1.1040     0.2710 ha         1 5AF       0.137750
     58 H44         -3.7820     1.9800     0.7700 ha         1 5AF       0.140000
     59 H50         -6.3860     0.3970     1.7880 h2         1 5AF       0.071700
     60 H52         -6.1020     2.4650    -0.2300 hn         1 5AF       0.345300
     61 H53         -7.0710     2.4880     1.0740 hn         1 5AF       0.345300
     62 H55         -7.0850     0.2320    -1.0240 hn         1 5AF       0.372300
     63 H57         -8.6550     0.8830     1.1900 h1         1 5AF       0.025200
     64 H67        -10.5150     0.6360    -0.4120 hc         1 5AF       0.044200
     65 H66         -9.4380    -0.0840    -1.5840 hc         1 5AF       0.044200
     66 H70         -9.8360     2.3440    -2.0480 hc         1 5AF       0.034367
     67 H69         -8.1350     2.0640    -1.7250 hc         1 5AF       0.034367
     68 H71         -9.1600     2.7690    -0.4780 hc         1 5AF       0.034367
     69 H59        -10.1700    -1.0440     1.2230 hc         1 5AF       0.044200
     70 H60         -9.1280    -1.9210     0.1170 hc         1 5AF       0.044200
     71 H64         -8.7750    -2.6610     2.4740 hc         1 5AF       0.034367
     72 H62         -7.3040    -1.9410     1.8290 hc         1 5AF       0.034367
     73 H63         -8.3220    -1.0240     2.9410 hc         1 5AF       0.034367
@<TRIPOS>BOND
     1     1     2 1   
     2     1    34 1   
     3     1    35 1   
     4     1    36 1   
     5     2     3 1   
     6     2    37 1   
     7     2    38 1   
     8     3     4 1   
     9     3     6 1   
    10     3    39 1   
    11     4     5 1   
    12     4    40 1   
    13     4    41 1   
    14     5    42 1   
    15     5    43 1   
    16     5    44 1   
    17     6     7 1   
    18     6    45 1   
    19     7     8 1   
    20     7     9 1   
    21     7    46 1   
    22     8    47 1   
    23     8    48 1   
    24     9    10 ar  
    25     9    12 ar  
    26    10    11 ar  
    27    10    49 1   
    28    11    14 ar  
    29    11    50 1   
    30    12    13 ar  
    31    12    51 1   
    32    13    14 ar  
    33    13    52 1   
    34    14    15 1   
    35    15    16 1   
    36    15    17 2   
    37    16    19 1   
    38    17    18 1   
    39    17    53 1   
    40    18    19 2   
    41    18    54 1   
    42    19    20 1   
    43    20    21 ar  
    44    20    23 ar  
    45    21    22 ar  
    46    21    55 1   
    47    22    25 ar  
    48    22    56 1   
    49    23    24 ar  
    50    23    57 1   
    51    24    25 ar  
    52    24    58 1   
    53    25    26 1   
    54    26    27 1   
    55    26    28 1   
    56    26    59 1   
    57    27    60 1   
    58    27    61 1   
    59    28    29 1   
    60    28    62 1   
    61    29    30 1   
    62    29    32 1   
    63    29    63 1   
    64    30    31 1   
    65    30    64 1   
    66    30    65 1   
    67    31    66 1   
    68    31    67 1   
    69    31    68 1   
    70    32    33 1   
    71    32    69 1   
    72    32    70 1   
    73    33    71 1   
    74    33    72 1   
    75    33    73 1   
@<TRIPOS>SUBSTRUCTURE
     1 5AF         1 TEMP              0 ****  ****    0 ROOT
