@<TRIPOS>MOLECULE
5AF
   73    75     1     0     0
SMALL
No Charge or Current Charge


@<TRIPOS>ATOM
      1 C1           9.6600    -0.4660    -0.8480 c3         1 5AF      -0.091850
      2 C5           9.1460    -0.5070     0.6080 c3         1 5AF      -0.082900
      3 C8           7.6490    -0.1340     0.8040 c3         1 5AF       0.200000
      4 C9           7.2010    -0.3720     2.2690 c3         1 5AF      -0.082900
      5 C10          5.6950    -0.1400     2.5270 c3         1 5AF      -0.091850
      6 N17          7.3980     1.2810     0.4510 n7         1 5AF      -0.918400
      7 C19          6.9170     1.5140    -0.8790 c3         1 5AF       0.459000
      8 N20          7.0240     2.9380    -0.9510 n8         1 5AF      -1.012700
      9 C23          5.4780     1.0360    -1.0740 ca         1 5AF      -0.111800
     10 C28          4.4110     1.5600    -0.3130 ca         1 5AF      -0.100500
     11 C30          3.1010     1.0860    -0.5010 ca         1 5AF      -0.093500
     12 C24          5.2050     0.0310    -2.0220 ca         1 5AF      -0.100500
     13 C26          3.8950    -0.4420    -2.2100 ca         1 5AF      -0.093500
     14 C32          2.8250     0.0810    -1.4520 ca         1 5AF      -0.119000
     15 C33          1.4470    -0.3990    -1.6260 cc         1 5AF       0.195000
     16 O38          0.4130     0.0170    -0.8220 os         1 5AF      -0.237000
     17 C34          1.0090    -1.2810    -2.5820 cd         1 5AF      -0.170000
     18 C36         -0.3800    -1.4380    -2.3690 cd         1 5AF      -0.170000
     19 C39         -0.6970    -0.6420    -1.2970 cc         1 5AF       0.195000
     20 C40         -2.0310    -0.4670    -0.7070 ca         1 5AF      -0.119000
     21 C45         -3.1350    -1.2410    -1.1260 ca         1 5AF      -0.093500
     22 C47         -4.4020    -1.0570    -0.5450 ca         1 5AF      -0.100500
     23 C41         -2.2280     0.4850     0.3140 ca         1 5AF      -0.093500
     24 C43         -3.4950     0.6690     0.8940 ca         1 5AF      -0.100500
     25 C49         -4.6060    -0.0880     0.4630 ca         1 5AF      -0.111800
     26 C50         -5.9860     0.0930     1.1140 c3         1 5AF       0.459000
     27 N51         -6.2530     1.4540     1.4490 n8         1 5AF      -1.012700
     28 N54         -7.0640    -0.1520     0.1900 n7         1 5AF      -0.918400
     29 C56         -8.4510    -0.2900     0.6950 c3         1 5AF       0.200000
     30 C65         -9.4240     0.3620    -0.3210 c3         1 5AF      -0.082900
     31 C68         -9.2350     1.8840    -0.5110 c3         1 5AF      -0.091850
     32 C58         -8.7970    -1.7880     0.9170 c3         1 5AF      -0.082900
     33 C61         -7.9650    -2.5080     2.0010 c3         1 5AF      -0.091850
     34 H2           9.0090    -1.0520    -1.5080 hc         1 5AF       0.034367
     35 H4          10.6710    -0.8860    -0.9040 hc         1 5AF       0.034367
     36 H3           9.7060     0.5640    -1.2210 hc         1 5AF       0.034367
     37 H6           9.3010    -1.5250     0.9870 hc         1 5AF       0.044200
     38 H7           9.7710     0.1500     1.2260 hc         1 5AF       0.044200
     39 H16          7.0450    -0.8030     0.1740 h1         1 5AF       0.025200
     40 H15          7.7850     0.2670     2.9440 hc         1 5AF       0.044200
     41 H14          7.4350    -1.4080     2.5430 hc         1 5AF       0.044200
     42 H11          5.4300     0.9180     2.4150 hc         1 5AF       0.034367
     43 H13          5.4340    -0.4430     3.5480 hc         1 5AF       0.034367
     44 H12          5.0860    -0.7280     1.8300 hc         1 5AF       0.034367
     45 H18          6.6300     1.5850     1.0460 hn         1 5AF       0.427500
     46 H19          7.5850     1.0570    -1.6240 h2         1 5AF       0.071700
     47 H21          7.0410     3.1940    -1.9420 hn         1 5AF       0.400500
     48 H22          6.1430     3.3240    -0.6150 hn         1 5AF       0.400500
     49 H29          4.5900     2.3320     0.4320 ha         1 5AF       0.122000
     50 H31          2.2980     1.5070     0.1010 ha         1 5AF       0.119750
     51 H25          6.0140    -0.3920    -2.6150 ha         1 5AF       0.122000
     52 H27          3.7260    -1.2220    -2.9480 ha         1 5AF       0.119750
     53 H35          1.5990    -1.7610    -3.3540 ha         1 5AF       0.141500
     54 H37         -1.0530    -2.0610    -2.9470 ha         1 5AF       0.141500
     55 H46         -3.0240    -1.9970    -1.8980 ha         1 5AF       0.119750
     56 H48         -5.2290    -1.6780    -0.8820 ha         1 5AF       0.122000
     57 H42         -1.3950     1.0910     0.6660 ha         1 5AF       0.119750
     58 H44         -3.6080     1.4050     1.6870 ha         1 5AF       0.122000
     59 H50         -6.0680    -0.5460     2.0060 h2         1 5AF       0.071700
     60 H52         -6.0860     2.0180     0.6170 hn         1 5AF       0.400500
     61 H53         -7.2540     1.5080     1.6290 hn         1 5AF       0.400500
     62 H55         -7.0120     0.5310    -0.5640 hn         1 5AF       0.427500
     63 H57         -8.5780     0.2330     1.6530 h1         1 5AF       0.025200
     64 H67        -10.4530     0.1880     0.0170 hc         1 5AF       0.044200
     65 H66         -9.3280    -0.1360    -1.2940 hc         1 5AF       0.044200
     66 H70        -10.0040     2.2800    -1.1840 hc         1 5AF       0.034367
     67 H69         -8.2560     2.1130    -0.9480 hc         1 5AF       0.034367
     68 H71         -9.3200     2.4080     0.4490 hc         1 5AF       0.034367
     69 H59         -9.8540    -1.8610     1.2020 hc         1 5AF       0.044200
     70 H60         -8.6940    -2.3310    -0.0300 hc         1 5AF       0.044200
     71 H64         -8.3670    -3.5120     2.1820 hc         1 5AF       0.034367
     72 H62         -6.9200    -2.6180     1.6880 hc         1 5AF       0.034367
     73 H63         -7.9920    -1.9530     2.9470 hc         1 5AF       0.034367
@<TRIPOS>BOND
     1     1     2 1   
     2     1    34 1   
     3     1    35 1   
     4     1    36 1   
     5     2     3 1   
     6     2    37 1   
     7     2    38 1   
     8     3     4 1   
     9     3     6 1   
    10     3    39 1   
    11     4     5 1   
    12     4    40 1   
    13     4    41 1   
    14     5    42 1   
    15     5    43 1   
    16     5    44 1   
    17     6     7 1   
    18     6    45 1   
    19     7     8 1   
    20     7     9 1   
    21     7    46 1   
    22     8    47 1   
    23     8    48 1   
    24     9    10 ar  
    25     9    12 ar  
    26    10    11 ar  
    27    10    49 1   
    28    11    14 ar  
    29    11    50 1   
    30    12    13 ar  
    31    12    51 1   
    32    13    14 ar  
    33    13    52 1   
    34    14    15 1   
    35    15    16 1   
    36    15    17 2   
    37    16    19 1   
    38    17    18 1   
    39    17    53 1   
    40    18    19 2   
    41    18    54 1   
    42    19    20 1   
    43    20    21 ar  
    44    20    23 ar  
    45    21    22 ar  
    46    21    55 1   
    47    22    25 ar  
    48    22    56 1   
    49    23    24 ar  
    50    23    57 1   
    51    24    25 ar  
    52    24    58 1   
    53    25    26 1   
    54    26    27 1   
    55    26    28 1   
    56    26    59 1   
    57    27    60 1   
    58    27    61 1   
    59    28    29 1   
    60    28    62 1   
    61    29    30 1   
    62    29    32 1   
    63    29    63 1   
    64    30    31 1   
    65    30    64 1   
    66    30    65 1   
    67    31    66 1   
    68    31    67 1   
    69    31    68 1   
    70    32    33 1   
    71    32    69 1   
    72    32    70 1   
    73    33    71 1   
    74    33    72 1   
    75    33    73 1   
@<TRIPOS>SUBSTRUCTURE
     1 5AF         1 TEMP              0 ****  ****    0 ROOT
