@<TRIPOS>MOLECULE
5AG
   59    62     1     0     0
SMALL
abcg2


@<TRIPOS>ATOM
      1 C2           6.1310     2.9130    -0.5690 ca         1 5AG       0.180900
      2 C4           4.3560     1.6340    -0.3940 ca         1 5AG       0.150500
      3 C5           3.5000     2.6830    -0.6760 ca         1 5AG      -0.090600
      4 C6           4.0980     3.9330    -0.9070 ca         1 5AG       0.444900
      5 N9           3.5460     0.5440    -0.2070 na         1 5AG      -0.270300
      6 CAA         -9.9910    -0.7030    -2.3300 c1         1 5AG      -0.219000
      7 CAC         -8.5560     0.0700    -0.2640 ca         1 5AG       0.031000
      8 CAD         -7.3000     0.6490    -0.4570 ca         1 5AG      -0.082000
      9 CBJ         -9.0480    -0.0920     1.0340 ca         1 5AG      -0.085000
     10 CBI         -8.2850     0.3250     2.1120 ca         1 5AG      -0.110000
     11 CBH         -7.0380     0.8990     1.9090 ca         1 5AG      -0.098000
     12 CAE         -6.5330     1.0680     0.6220 ca         1 5AG      -0.086300
     13 CAF         -5.1650     1.6510     0.4020 c3         1 5AG      -0.048100
     14 CAG         -4.1070     0.5540     0.3990 c3         1 5AG       0.105000
     15 NAH         -2.7910     1.1220     0.1880 ns         1 5AG      -0.505900
     16 CAI         -1.7070     0.3660    -0.0060 c          1 5AG       0.608100
     17 OBG         -1.7280    -0.8560    -0.0280 o          1 5AG      -0.588100
     18 CAJ         -0.4190     1.1370    -0.2150 c3         1 5AG      -0.076400
     19 C8           2.2560     0.9930    -0.3950 cc         1 5AG       0.402700
     20 N7           2.1950     2.2620    -0.6780 nd         1 5AG      -0.578100
     21 N6           3.3910     5.0280    -1.1980 nv         1 5AG      -1.065900
     22 N1           5.4330     4.0100    -0.8450 nb         1 5AG      -0.298000
     23 N3           5.6810     1.6920    -0.3280 nb         1 5AG      -0.209000
     24 CAV          4.0060    -0.7530     0.2110 c5         1 5AG       0.315300
     25 OBF          3.3890    -1.7400    -0.5650 os         1 5AG      -0.430000
     26 CAW          3.6720    -1.1200     1.6540 c5         1 5AG       0.130300
     27 OAX          4.5130    -0.4330     2.5210 oh         1 5AG      -0.670000
     28 CAY          3.8340    -2.6410     1.5970 c5         1 5AG       0.100300
     29 OAZ          5.2010    -2.9320     1.7180 oh         1 5AG      -0.687000
     30 CBA          3.2860    -2.9500     0.1920 c5         1 5AG       0.113300
     31 CBB          1.8450    -3.4350     0.2310 c3         1 5AG       0.144800
     32 NBC          1.2700    -3.5920    -1.1040 n2         1 5AG      -0.395200
     33 NBD          1.5980    -4.5880    -1.7230 n1         1 5AG       0.223000
     34 NBE          1.8330    -5.4720    -2.3780 n1         1 5AG      -0.079000
     35 H1           7.2080     3.0410    -0.5360 h5         1 5AG       0.048100
     36 H2         -10.5760    -1.0180    -3.1630 ha         1 5AG       0.258000
     37 H4         -10.0200    -0.5390     1.1910 ha         1 5AG       0.122000
     38 H5          -8.6660     0.2030     3.1170 ha         1 5AG       0.117000
     39 H6          -6.4540     1.2260     2.7620 ha         1 5AG       0.112000
     40 H7          -5.1360     2.1890    -0.5490 hc         1 5AG       0.051700
     41 H8          -4.9420     2.3760     1.1890 hc         1 5AG       0.051700
     42 H9          -4.1370     0.0070     1.3460 h1         1 5AG       0.058700
     43 H10         -4.3240    -0.1660    -0.3930 h1         1 5AG       0.058700
     44 H11         -2.6880     2.1240     0.2360 hn         1 5AG       0.316500
     45 H12         -0.4630     1.7130    -1.1410 h1         1 5AG       0.092700
     46 H13         -0.2410     1.8350     0.6030 h1         1 5AG       0.092700
     47 H14          3.8490     5.9200    -1.2780 hn         1 5AG       0.503000
     48 H15          2.3860     5.0150    -1.1680 hn         1 5AG       0.503000
     49 H16          5.0940    -0.7400     0.0740 h2         1 5AG       0.123700
     50 H17          2.6140    -0.8930     1.8430 h1         1 5AG       0.059700
     51 H18          4.1870    -0.5380     3.4200 ho         1 5AG       0.510000
     52 H19          3.2450    -3.1470     2.3720 h1         1 5AG       0.052700
     53 H20          5.3150    -3.8860     1.6690 ho         1 5AG       0.505000
     54 H21          3.9080    -3.7150    -0.2870 h1         1 5AG       0.063700
     55 H22          1.8130    -4.3740     0.7900 h1         1 5AG       0.070200
     56 H23          1.2040    -2.7230     0.7470 h1         1 5AG       0.070200
     57 SAK          0.9020    -0.0970    -0.3010 ss         1 5AG      -0.104200
     58 H3          -6.9240     0.7770    -1.4650 ha         1 5AG       0.121000
     59 CAB         -9.3340    -0.3490    -1.3850 cg         1 5AG      -0.132000
@<TRIPOS>BOND
     1     1    22 ar  
     2     1    23 ar  
     3     1    35 1   
     4     2     3 ar  
     5     2     5 1   
     6     2    23 ar  
     7     3     4 ar  
     8     3    20 1   
     9     4    21 1   
    10     4    22 ar  
    11     5    19 1   
    12     5    24 1   
    13     6    36 1   
    14     6    59 3   
    15     7     8 ar  
    16     7     9 ar  
    17     7    59 1   
    18     8    12 ar  
    19     8    58 1   
    20     9    10 ar  
    21     9    37 1   
    22    10    11 ar  
    23    10    38 1   
    24    11    12 ar  
    25    11    39 1   
    26    12    13 1   
    27    13    14 1   
    28    13    40 1   
    29    13    41 1   
    30    14    15 1   
    31    14    42 1   
    32    14    43 1   
    33    15    16 1   
    34    15    44 1   
    35    16    17 2   
    36    16    18 1   
    37    18    45 1   
    38    18    46 1   
    39    18    57 1   
    40    19    20 2   
    41    19    57 1   
    42    21    47 1   
    43    21    48 1   
    44    24    25 1   
    45    24    26 1   
    46    24    49 1   
    47    25    30 1   
    48    26    27 1   
    49    26    28 1   
    50    26    50 1   
    51    27    51 1   
    52    28    29 1   
    53    28    30 1   
    54    28    52 1   
    55    29    53 1   
    56    30    31 1   
    57    30    54 1   
    58    31    32 1   
    59    31    55 1   
    60    31    56 1   
    61    32    33 1   
    62    33    34 3   
@<TRIPOS>SUBSTRUCTURE
     1 5AG         1 TEMP              0 ****  ****    0 ROOT
