@<TRIPOS>MOLECULE
5AG
   59    62     1     0     0
SMALL
No Charge or Current Charge


@<TRIPOS>ATOM
      1 C2           6.0460     3.0600    -0.9580 ca         1 5AG       0.180900
      2 C4           4.3420     1.6400    -0.3940 ca         1 5AG       0.150500
      3 C5           3.4400     2.6740    -0.5280 ca         1 5AG      -0.090600
      4 C6           3.9340     3.9400    -0.9050 ca         1 5AG       0.444900
      5 N9           3.6090     0.5440    -0.0260 na         1 5AG      -0.270300
      6 CAA        -10.1140    -0.9800    -2.4030 c1         1 5AG      -0.219000
      7 CAC         -8.8260     0.1990    -0.4090 ca         1 5AG       0.031000
      8 CAD         -7.5060     0.6500    -0.5960 ca         1 5AG      -0.082000
      9 CBJ         -9.4550     0.3730     0.8370 ca         1 5AG      -0.085000
     10 CBI         -8.7650     0.9960     1.8920 ca         1 5AG      -0.110000
     11 CBH         -7.4470     1.4460     1.7030 ca         1 5AG      -0.098000
     12 CAE         -6.8110     1.2770     0.4580 ca         1 5AG      -0.086300
     13 CAF         -5.3810     1.7580     0.2550 c3         1 5AG      -0.048100
     14 CAG         -4.3550     0.6500     0.5540 c3         1 5AG       0.105000
     15 NAH         -2.9780     1.1090     0.3570 ns         1 5AG      -0.505900
     16 CAI         -1.8660     0.3170     0.5310 c          1 5AG       0.608100
     17 OBG         -1.9560    -0.8550     0.8720 o          1 5AG      -0.588100
     18 CAJ         -0.5350     1.0260     0.2640 c3         1 5AG      -0.076400
     19 C8           2.2850     0.9860     0.0520 cc         1 5AG       0.402700
     20 N7           2.1240     2.2800    -0.2580 nd         1 5AG      -0.578100
     21 N6           3.1290     5.0250    -1.0640 nv         1 5AG      -1.065900
     22 N1           5.2440     4.1400    -1.1190 nb         1 5AG      -0.298000
     23 N3           5.6620     1.8100    -0.6040 nb         1 5AG      -0.209000
     24 CAV          4.1520    -0.7690     0.3400 c5         1 5AG       0.315300
     25 OBF          3.7300    -1.7690    -0.6130 os         1 5AG      -0.430000
     26 CAW          3.8250    -1.3710     1.7450 c5         1 5AG       0.130300
     27 OAX          4.5690    -0.7930     2.8260 oh         1 5AG      -0.670000
     28 CAY          4.2920    -2.8300     1.4840 c5         1 5AG       0.100300
     29 OAZ          5.7310    -2.9100     1.5130 oh         1 5AG      -0.687000
     30 CBA          3.6970    -3.0660     0.0490 c5         1 5AG       0.113300
     31 CBB          2.2390    -3.6150     0.0620 c3         1 5AG       0.144800
     32 NBC          1.7210    -3.7900    -1.3060 n2         1 5AG      -0.395200
     33 NBD          1.9880    -4.8640    -1.8680 n1         1 5AG       0.223000
     34 NBE          2.3330    -5.7770    -2.4520 n1         1 5AG      -0.079000
     35 H1           7.1100     3.2120    -1.1310 h5         1 5AG       0.048100
     36 H2         -10.6360    -1.4600    -3.2070 ha         1 5AG       0.258000
     37 H4         -10.4750     0.0270     0.9890 ha         1 5AG       0.122000
     38 H5          -9.2520     1.1290     2.8550 ha         1 5AG       0.117000
     39 H6          -6.9210     1.9250     2.5260 ha         1 5AG       0.112000
     40 H7          -5.2440     2.1040    -0.7770 hc         1 5AG       0.051700
     41 H8          -5.1760     2.6210     0.9000 hc         1 5AG       0.051700
     42 H9          -4.4720     0.3140     1.5940 h1         1 5AG       0.058700
     43 H10         -4.5410    -0.2090    -0.1050 h1         1 5AG       0.058700
     44 H11         -2.8210     2.0700     0.0750 hn         1 5AG       0.316500
     45 H12         -0.5760     1.4610    -0.7410 h1         1 5AG       0.092700
     46 H13         -0.4320     1.8390     0.9920 h1         1 5AG       0.092700
     47 H14          3.5570     5.9460    -1.0360 hn         1 5AG       0.503000
     48 H15          2.1810     4.9490    -0.7030 hn         1 5AG       0.503000
     49 H16          5.2430    -0.6660     0.2640 h2         1 5AG       0.123700
     50 H17          2.7500    -1.3380     1.9630 h1         1 5AG       0.059700
     51 H18          5.4170    -1.3020     2.8300 ho         1 5AG       0.510000
     52 H19          3.8590    -3.5250     2.2170 h1         1 5AG       0.052700
     53 H20          5.9820    -3.8540     1.3770 ho         1 5AG       0.505000
     54 H21          4.3200    -3.7680    -0.5220 h1         1 5AG       0.063700
     55 H22          2.2300    -4.5680     0.6080 h1         1 5AG       0.070200
     56 H23          1.5980    -2.9230     0.6220 h1         1 5AG       0.070200
     57 SAK          0.9350    -0.1000     0.3830 ss         1 5AG      -0.104200
     58 H3          -7.0190     0.5130    -1.5590 ha         1 5AG       0.121000
     59 CAB         -9.5270    -0.4390    -1.4860 cg         1 5AG      -0.132000
@<TRIPOS>BOND
     1     1    22 ar  
     2     1    23 ar  
     3     1    35 1   
     4     2     3 ar  
     5     2     5 1   
     6     2    23 ar  
     7     3     4 ar  
     8     3    20 1   
     9     4    21 1   
    10     4    22 ar  
    11     5    19 1   
    12     5    24 1   
    13     6    36 1   
    14     6    59 3   
    15     7     8 ar  
    16     7     9 ar  
    17     7    59 1   
    18     8    12 ar  
    19     8    58 1   
    20     9    10 ar  
    21     9    37 1   
    22    10    11 ar  
    23    10    38 1   
    24    11    12 ar  
    25    11    39 1   
    26    12    13 1   
    27    13    14 1   
    28    13    40 1   
    29    13    41 1   
    30    14    15 1   
    31    14    42 1   
    32    14    43 1   
    33    15    16 1   
    34    15    44 1   
    35    16    17 2   
    36    16    18 1   
    37    18    45 1   
    38    18    46 1   
    39    18    57 1   
    40    19    20 2   
    41    19    57 1   
    42    21    47 1   
    43    21    48 1   
    44    24    25 1   
    45    24    26 1   
    46    24    49 1   
    47    25    30 1   
    48    26    27 1   
    49    26    28 1   
    50    26    50 1   
    51    27    51 1   
    52    28    29 1   
    53    28    30 1   
    54    28    52 1   
    55    29    53 1   
    56    30    31 1   
    57    30    54 1   
    58    31    32 1   
    59    31    55 1   
    60    31    56 1   
    61    32    33 1   
    62    33    34 3   
@<TRIPOS>SUBSTRUCTURE
     1 5AG         1 TEMP              0 ****  ****    0 ROOT
