@<TRIPOS>MOLECULE
5AH
   98   102     1     0     0
SMALL
abcg2


@<TRIPOS>ATOM
      1 C1           0.2740    -1.7430    -2.6630 c3         1 5AH      -0.088767
      2 C2           9.4860     0.5070     0.7880 ca         1 5AH       0.335900
      3 N3           8.2760     1.0380     0.6750 nb         1 5AH      -0.674000
      4 C4           7.2340     0.3710     1.1700 cp         1 5AH       0.405500
      5 C5           7.3830    -0.8700     1.7890 ca         1 5AH      -0.144000
      6 C6           8.6500    -1.4140     1.9080 ca         1 5AH      -0.076000
      7 C7           9.7330    -0.7140     1.3980 ca         1 5AH      -0.169000
      8 C8          -2.7550     1.1580    -0.1280 c3         1 5AH       0.108000
      9 C9          -1.2990     0.8380     0.2220 c3         1 5AH      -0.104400
     10 C10         -0.3400     2.0070     0.0570 c3         1 5AH       0.161800
     11 O11         -3.2330     2.2630     0.6070 oh         1 5AH      -0.662000
     12 C12         -2.9140     1.5030    -1.6230 c3         1 5AH      -0.018100
     13 C13         -4.3450     1.6270    -2.0680 ca         1 5AH      -0.091300
     14 C14         -5.0640     2.8030    -1.8600 ca         1 5AH      -0.099500
     15 C15         -6.3930     2.9020    -2.2530 ca         1 5AH      -0.121000
     16 C16         -7.0250     1.8240    -2.8610 ca         1 5AH      -0.112000
     17 C17         -6.3150     0.6500    -3.0820 ca         1 5AH      -0.121000
     18 C18         -4.9870     0.5560    -2.6880 ca         1 5AH      -0.099500
     19 C19         -3.5960    -0.1060     0.1340 c          1 5AH       0.577100
     20 N20         -4.7190     0.0930     0.8370 ns         1 5AH      -0.485900
     21 C21         -5.6810    -0.9290     1.1370 c5         1 5AH       0.120000
     22 C22         -7.0200    -0.7820     0.3640 c5         1 5AH       0.155300
     23 O23         -7.3990     0.5700     0.2640 oh         1 5AH      -0.658000
     24 C24         -8.0280    -1.4950     1.2700 c5         1 5AH      -0.032100
     25 C25         -7.4770    -1.2670     2.6500 ca         1 5AH      -0.070300
     26 C26         -8.1080    -1.3520     3.8800 ca         1 5AH      -0.095000
     27 C27         -7.3710    -1.0950     5.0330 ca         1 5AH      -0.106000
     28 C28         -6.0240    -0.7590     4.9540 ca         1 5AH      -0.115000
     29 C29         -5.3900    -0.6780     3.7170 ca         1 5AH      -0.085000
     30 C30         -6.1290    -0.9350     2.5760 ca         1 5AH      -0.105300
     31 O31         -3.2410    -1.1910    -0.3020 o          1 5AH      -0.608100
     32 N32          1.0330     1.5660     0.2610 n3         1 5AH      -0.456600
     33 C33          1.9750     2.6700     0.4430 c3         1 5AH       0.195100
     34 C34          3.3620     2.1340     0.6620 ca         1 5AH      -0.091300
     35 C35          4.3660     2.3360    -0.2770 ca         1 5AH      -0.092500
     36 C36          5.6260     1.7820    -0.1040 ca         1 5AH      -0.086000
     37 C37          5.9030     0.9900     1.0070 cp         1 5AH      -0.142500
     38 C38          4.8970     0.7960     1.9550 ca         1 5AH      -0.086000
     39 C39          3.6470     1.3640     1.7860 ca         1 5AH      -0.092500
     40 N40          1.4550     0.7430    -0.7620 ns         1 5AH      -0.391300
     41 C41          1.9120    -0.5030    -0.5260 c          1 5AH       0.607100
     42 C42          2.5400    -1.1700    -1.7490 c3         1 5AH       0.052700
     43 N51          3.8540    -1.6190    -1.3570 ns         1 5AH      -0.489900
     44 C43          4.9890    -1.1610    -1.9240 c          1 5AH       0.640100
     45 O44          6.0570    -1.6520    -1.2930 os         1 5AH      -0.452100
     46 C45          7.3320    -1.2840    -1.8060 c3         1 5AH       0.167900
     47 O46          5.0500    -0.4250    -2.8880 o          1 5AH      -0.551000
     48 C47          1.6670    -2.2970    -2.3560 c3         1 5AH      -0.045000
     49 C48          1.5400    -3.5060    -1.4270 c3         1 5AH      -0.088767
     50 C49          2.3190    -2.7440    -3.6670 c3         1 5AH      -0.088767
     51 H11C         0.3200    -0.8540    -3.2960 hc         1 5AH       0.040367
     52 H12C        -0.3180    -2.4920    -3.1920 hc         1 5AH       0.040367
     53 H13C        -0.2800    -1.4820    -1.7600 hc         1 5AH       0.040367
     54 H2          10.3050     1.0850     0.3730 h4         1 5AH       0.019100
     55 H7          10.7400    -1.0990     1.4660 ha         1 5AH       0.124000
     56 H5           6.5200    -1.4080     2.1560 ha         1 5AH       0.130000
     57 H6           8.7890    -2.3770     2.3820 ha         1 5AH       0.120000
     58 H91C        -1.2420     0.4860     1.2580 hc         1 5AH       0.078700
     59 H92C        -0.9770     0.0040    -0.4000 hc         1 5AH       0.078700
     60 H11         -2.9000     2.2150     1.5100 ho         1 5AH       0.452000
     61 H121        -2.3890     2.4400    -1.8190 hc         1 5AH       0.063700
     62 H122        -2.4100     0.7320    -2.2070 hc         1 5AH       0.063700
     63 H101        -0.4540     2.4870    -0.9250 h1         1 5AH       0.039700
     64 H102        -0.5420     2.7730     0.8070 h1         1 5AH       0.039700
     65 H14         -4.5820     3.6520    -1.3930 ha         1 5AH       0.122500
     66 H18         -4.4410    -0.3630    -2.8650 ha         1 5AH       0.122500
     67 H15         -6.9360     3.8220    -2.0820 ha         1 5AH       0.116500
     68 H16         -8.0610     1.9010    -3.1660 ha         1 5AH       0.117000
     69 H17         -6.7950    -0.1940    -3.5600 ha         1 5AH       0.116500
     70 H20         -4.9340     1.0400     1.1120 hn         1 5AH       0.335500
     71 H21         -5.2370    -1.8950     0.8840 h1         1 5AH       0.095700
     72 H22         -6.9540    -1.2460    -0.6250 h1         1 5AH       0.047700
     73 H23         -6.9130     0.9700    -0.4640 ho         1 5AH       0.452000
     74 H241        -9.0440    -1.1260     1.1260 hc         1 5AH       0.064700
     75 H242        -8.0400    -2.5640     1.0380 hc         1 5AH       0.064700
     76 H26         -9.1590    -1.6040     3.9500 ha         1 5AH       0.115000
     77 H27         -7.8530    -1.1520     6.0010 ha         1 5AH       0.112000
     78 H28         -5.4660    -0.5550     5.8590 ha         1 5AH       0.112000
     79 H29         -4.3410    -0.4140     3.6530 ha         1 5AH       0.115000
     80 H331         1.9690     3.3560    -0.4170 h1         1 5AH       0.046700
     81 H332         1.6370     3.2400     1.3110 h1         1 5AH       0.046700
     82 H40          1.5790     1.1500    -1.6830 hn         1 5AH       0.304500
     83 H35          4.1610     2.9260    -1.1620 ha         1 5AH       0.119500
     84 H39          2.8790     1.2000     2.5310 ha         1 5AH       0.119500
     85 H36          6.3920     1.9500    -0.8490 ha         1 5AH       0.124500
     86 H38          5.0930     0.2090     2.8430 ha         1 5AH       0.124500
     87 H42          2.6800    -0.4220    -2.5320 h1         1 5AH       0.080700
     88 H51          3.9300    -2.1600    -0.5100 hn         1 5AH       0.341500
     89 H451         8.0620    -1.7370    -1.1410 h1         1 5AH       0.049033
     90 H452         7.4830    -1.6650    -2.8160 h1         1 5AH       0.049033
     91 H453         7.4730    -0.2040    -1.8050 h1         1 5AH       0.049033
     92 H481         0.9530    -4.2830    -1.9190 hc         1 5AH       0.040367
     93 H482         2.5130    -3.9390    -1.1900 hc         1 5AH       0.040367
     94 H483         1.0430    -3.2570    -0.4900 hc         1 5AH       0.040367
     95 H491         2.3900    -1.9210    -4.3810 hc         1 5AH       0.040367
     96 H492         3.3230    -3.1390    -3.5070 hc         1 5AH       0.040367
     97 H493         1.7240    -3.5340    -4.1280 hc         1 5AH       0.040367
     98 O50          1.8590    -1.0580     0.5550 o          1 5AH      -0.570100
@<TRIPOS>BOND
     1     1    48 1   
     2     1    51 1   
     3     1    52 1   
     4     1    53 1   
     5     2     3 ar  
     6     2     7 ar  
     7     2    54 1   
     8     3     4 ar  
     9     4     5 ar  
    10     4    37 1   
    11     5     6 ar  
    12     5    56 1   
    13     6     7 ar  
    14     6    57 1   
    15     7    55 1   
    16     8     9 1   
    17     8    11 1   
    18     8    12 1   
    19     8    19 1   
    20     9    10 1   
    21     9    58 1   
    22     9    59 1   
    23    10    32 1   
    24    10    63 1   
    25    10    64 1   
    26    11    60 1   
    27    12    13 1   
    28    12    61 1   
    29    12    62 1   
    30    13    14 ar  
    31    13    18 ar  
    32    14    15 ar  
    33    14    65 1   
    34    15    16 ar  
    35    15    67 1   
    36    16    17 ar  
    37    16    68 1   
    38    17    18 ar  
    39    17    69 1   
    40    18    66 1   
    41    19    20 1   
    42    19    31 2   
    43    20    21 1   
    44    20    70 1   
    45    21    22 1   
    46    21    30 1   
    47    21    71 1   
    48    22    23 1   
    49    22    24 1   
    50    22    72 1   
    51    23    73 1   
    52    24    25 1   
    53    24    74 1   
    54    24    75 1   
    55    25    26 ar  
    56    25    30 ar  
    57    26    27 ar  
    58    26    76 1   
    59    27    28 ar  
    60    27    77 1   
    61    28    29 ar  
    62    28    78 1   
    63    29    30 ar  
    64    29    79 1   
    65    32    33 1   
    66    32    40 1   
    67    33    34 1   
    68    33    80 1   
    69    33    81 1   
    70    34    35 ar  
    71    34    39 ar  
    72    35    36 ar  
    73    35    83 1   
    74    36    37 ar  
    75    36    85 1   
    76    37    38 ar  
    77    38    39 ar  
    78    38    86 1   
    79    39    84 1   
    80    40    41 1   
    81    40    82 1   
    82    41    42 1   
    83    41    98 2   
    84    42    43 1   
    85    42    48 1   
    86    42    87 1   
    87    43    44 1   
    88    43    88 1   
    89    44    45 1   
    90    44    47 2   
    91    45    46 1   
    92    46    89 1   
    93    46    90 1   
    94    46    91 1   
    95    48    49 1   
    96    48    50 1   
    97    49    92 1   
    98    49    93 1   
    99    49    94 1   
   100    50    95 1   
   101    50    96 1   
   102    50    97 1   
@<TRIPOS>SUBSTRUCTURE
     1 5AH         1 TEMP              0 ****  ****    0 ROOT
