@<TRIPOS>MOLECULE
5AH
   98   102     1     0     0
SMALL
No Charge or Current Charge


@<TRIPOS>ATOM
      1 C1           0.7740    -1.6640    -3.0770 c3         1 5AH      -0.088767
      2 C2           9.6280     0.7440     0.2440 ca         1 5AH       0.335900
      3 N3           8.3700     1.2230     0.1210 nb         1 5AH      -0.674000
      4 C4           7.3930     0.7220     0.9140 cp         1 5AH       0.405500
      5 C5           7.6710    -0.3020     1.8560 ca         1 5AH      -0.144000
      6 C6           8.9750    -0.8040     1.9850 ca         1 5AH      -0.076000
      7 C7           9.9720    -0.2640     1.1590 ca         1 5AH      -0.169000
      8 C8          -2.9450     1.2320    -0.1880 c3         1 5AH       0.108000
      9 C9          -1.4380     0.8560    -0.0520 c3         1 5AH      -0.104400
     10 C10         -0.4330     2.0260    -0.2080 c3         1 5AH       0.161800
     11 O11         -3.2400     2.2250     0.8310 oh         1 5AH      -0.662000
     12 C12         -3.2620     1.8510    -1.5820 c3         1 5AH      -0.018100
     13 C13         -4.7560     2.0350    -1.8570 ca         1 5AH      -0.091300
     14 C14         -5.4380     3.1630    -1.3620 ca         1 5AH      -0.099500
     15 C15         -6.8060     3.3390    -1.6300 ca         1 5AH      -0.121000
     16 C16         -7.5020     2.3890    -2.3960 ca         1 5AH      -0.112000
     17 C17         -6.8280     1.2590    -2.8890 ca         1 5AH      -0.121000
     18 C18         -5.4600     1.0840    -2.6220 ca         1 5AH      -0.099500
     19 C19         -3.8180    -0.0680    -0.0070 c          1 5AH       0.577100
     20 N20         -4.7940     0.0200     0.9680 ns         1 5AH      -0.485900
     21 C21         -5.7360    -1.0960     1.1450 c5         1 5AH       0.120000
     22 C22         -7.0780    -0.6950     0.3700 c5         1 5AH       0.155300
     23 O23         -7.3390     0.7190     0.3580 oh         1 5AH      -0.658000
     24 C24         -8.2180    -1.4420     1.1670 c5         1 5AH      -0.032100
     25 C25         -7.6310    -1.4690     2.5560 ca         1 5AH      -0.070300
     26 C26         -8.3210    -1.6750     3.7610 ca         1 5AH      -0.095000
     27 C27         -7.5970    -1.6740     4.9690 ca         1 5AH      -0.106000
     28 C28         -6.2000    -1.4740     4.9580 ca         1 5AH      -0.115000
     29 C29         -5.5240    -1.2740     3.7380 ca         1 5AH      -0.085000
     30 C30         -6.2650    -1.2700     2.5450 ca         1 5AH      -0.105300
     31 O31         -3.6350    -1.0890    -0.6620 o          1 5AH      -0.608100
     32 N32          0.9720     1.6280     0.0290 n3         1 5AH      -0.456600
     33 C33          1.9260     2.7620     0.1260 c3         1 5AH       0.195100
     34 C34          3.3660     2.3010     0.3510 ca         1 5AH      -0.091300
     35 C35          4.2970     2.3300    -0.7040 ca         1 5AH      -0.092500
     36 C36          5.5970     1.8310    -0.5190 ca         1 5AH      -0.086000
     37 C37          6.0090     1.2830     0.7250 cp         1 5AH      -0.142500
     38 C38          5.0590     1.2780     1.7810 ca         1 5AH      -0.086000
     39 C39          3.7590     1.7800     1.5960 ca         1 5AH      -0.092500
     40 N40          1.4320     0.6370    -0.8990 ns         1 5AH      -0.391300
     41 C41          2.0430    -0.5470    -0.4870 c          1 5AH       0.607100
     42 C42          2.8430    -1.2940    -1.5980 c3         1 5AH       0.052700
     43 N51          4.0480    -1.8970    -0.9800 ns         1 5AH      -0.489900
     44 C43          5.3160    -1.8140    -1.4790 c          1 5AH       0.640100
     45 O44          6.1670    -2.4370    -0.6180 os         1 5AH      -0.452100
     46 C45          7.5620    -2.4740    -0.9690 c3         1 5AH       0.167900
     47 O46          5.6280    -1.2680    -2.5250 o          1 5AH      -0.551000
     48 C47          1.9940    -2.3500    -2.4010 c3         1 5AH      -0.045000
     49 C48          1.4750    -3.4810    -1.4700 c3         1 5AH      -0.088767
     50 C49          2.8600    -2.9890    -3.5230 c3         1 5AH      -0.088767
     51 H11C         1.0930    -0.8220    -3.7030 hc         1 5AH       0.040367
     52 H12C         0.2330    -2.3710    -3.7170 hc         1 5AH       0.040367
     53 H13C         0.0610    -1.2900    -2.3340 hc         1 5AH       0.040367
     54 H2          10.3810     1.1790    -0.4120 h4         1 5AH       0.019100
     55 H7          10.9980    -0.6180     1.2190 ha         1 5AH       0.124000
     56 H5           6.8760    -0.7170     2.4670 ha         1 5AH       0.130000
     57 H6           9.2050    -1.5920     2.7000 ha         1 5AH       0.120000
     58 H91C        -1.2720     0.3840     0.9240 hc         1 5AH       0.078700
     59 H92C        -1.2020     0.0910    -0.7990 hc         1 5AH       0.078700
     60 H11         -2.7400     1.9840     1.6410 ho         1 5AH       0.452000
     61 H121        -2.7580     2.8200    -1.6750 hc         1 5AH       0.063700
     62 H122        -2.8240     1.2130    -2.3600 hc         1 5AH       0.063700
     63 H101        -0.5260     2.4540    -1.2150 h1         1 5AH       0.039700
     64 H102        -0.7040     2.8160     0.5050 h1         1 5AH       0.039700
     65 H14         -4.9060     3.9050    -0.7700 ha         1 5AH       0.122500
     66 H18         -4.9470     0.2070    -3.0140 ha         1 5AH       0.122500
     67 H15         -7.3270     4.2140    -1.2460 ha         1 5AH       0.116500
     68 H16         -8.5610     2.5260    -2.6040 ha         1 5AH       0.117000
     69 H17         -7.3660     0.5220    -3.4820 ha         1 5AH       0.116500
     70 H20         -4.8940     0.9190     1.4250 hn         1 5AH       0.335500
     71 H21         -5.3490    -2.0590     0.7840 h1         1 5AH       0.095700
     72 H22         -7.0390    -1.0560    -0.6680 h1         1 5AH       0.047700
     73 H23         -6.8050     1.1010    -0.3740 ho         1 5AH       0.452000
     74 H241        -9.1800    -0.9200     1.1140 hc         1 5AH       0.064700
     75 H242        -8.3730    -2.4570     0.7820 hc         1 5AH       0.064700
     76 H26         -9.3980    -1.8320     3.7620 ha         1 5AH       0.115000
     77 H27         -8.1150    -1.8310     5.9130 ha         1 5AH       0.112000
     78 H28         -5.6430    -1.4780     5.8920 ha         1 5AH       0.112000
     79 H29         -4.4460    -1.1250     3.7220 ha         1 5AH       0.115000
     80 H331         1.8840     3.3620    -0.7930 h1         1 5AH       0.046700
     81 H332         1.6340     3.4230     0.9530 h1         1 5AH       0.046700
     82 H40          1.5220     0.8830    -1.8810 hn         1 5AH       0.304500
     83 H35          4.0080     2.7200    -1.6770 ha         1 5AH       0.119500
     84 H39          3.0460     1.7420     2.4170 ha         1 5AH       0.119500
     85 H36          6.2870     1.8510    -1.3600 ha         1 5AH       0.124500
     86 H38          5.3260     0.8860     2.7590 ha         1 5AH       0.124500
     87 H42          3.1790    -0.5210    -2.3020 h1         1 5AH       0.080700
     88 H51          3.9570    -2.3540    -0.0810 hn         1 5AH       0.341500
     89 H451         8.1400    -2.9790    -0.1850 h1         1 5AH       0.049033
     90 H452         7.7140    -3.0190    -1.9100 h1         1 5AH       0.049033
     91 H453         7.9630    -1.4600    -1.0880 h1         1 5AH       0.049033
     92 H481         0.8980    -4.2200    -2.0400 hc         1 5AH       0.040367
     93 H482         2.3030    -4.0110    -0.9840 hc         1 5AH       0.040367
     94 H483         0.8190    -3.0840    -0.6860 hc         1 5AH       0.040367
     95 H491         3.2770    -2.2180    -4.1830 hc         1 5AH       0.040367
     96 H492         3.6940    -3.5670    -3.1070 hc         1 5AH       0.040367
     97 H493         2.2640    -3.6720    -4.1390 hc         1 5AH       0.040367
     98 O50          2.0000    -0.9400     0.6760 o          1 5AH      -0.570100
@<TRIPOS>BOND
     1     1    48 1   
     2     1    51 1   
     3     1    52 1   
     4     1    53 1   
     5     2     3 ar  
     6     2     7 ar  
     7     2    54 1   
     8     3     4 ar  
     9     4     5 ar  
    10     4    37 1   
    11     5     6 ar  
    12     5    56 1   
    13     6     7 ar  
    14     6    57 1   
    15     7    55 1   
    16     8     9 1   
    17     8    11 1   
    18     8    12 1   
    19     8    19 1   
    20     9    10 1   
    21     9    58 1   
    22     9    59 1   
    23    10    32 1   
    24    10    63 1   
    25    10    64 1   
    26    11    60 1   
    27    12    13 1   
    28    12    61 1   
    29    12    62 1   
    30    13    14 ar  
    31    13    18 ar  
    32    14    15 ar  
    33    14    65 1   
    34    15    16 ar  
    35    15    67 1   
    36    16    17 ar  
    37    16    68 1   
    38    17    18 ar  
    39    17    69 1   
    40    18    66 1   
    41    19    20 1   
    42    19    31 2   
    43    20    21 1   
    44    20    70 1   
    45    21    22 1   
    46    21    30 1   
    47    21    71 1   
    48    22    23 1   
    49    22    24 1   
    50    22    72 1   
    51    23    73 1   
    52    24    25 1   
    53    24    74 1   
    54    24    75 1   
    55    25    26 ar  
    56    25    30 ar  
    57    26    27 ar  
    58    26    76 1   
    59    27    28 ar  
    60    27    77 1   
    61    28    29 ar  
    62    28    78 1   
    63    29    30 ar  
    64    29    79 1   
    65    32    33 1   
    66    32    40 1   
    67    33    34 1   
    68    33    80 1   
    69    33    81 1   
    70    34    35 ar  
    71    34    39 ar  
    72    35    36 ar  
    73    35    83 1   
    74    36    37 ar  
    75    36    85 1   
    76    37    38 ar  
    77    38    39 ar  
    78    38    86 1   
    79    39    84 1   
    80    40    41 1   
    81    40    82 1   
    82    41    42 1   
    83    41    98 2   
    84    42    43 1   
    85    42    48 1   
    86    42    87 1   
    87    43    44 1   
    88    43    88 1   
    89    44    45 1   
    90    44    47 2   
    91    45    46 1   
    92    46    89 1   
    93    46    90 1   
    94    46    91 1   
    95    48    49 1   
    96    48    50 1   
    97    49    92 1   
    98    49    93 1   
    99    49    94 1   
   100    50    95 1   
   101    50    96 1   
   102    50    97 1   
@<TRIPOS>SUBSTRUCTURE
     1 5AH         1 TEMP              0 ****  ****    0 ROOT
