@<TRIPOS>MOLECULE
5AJ
   60    64     1     0     0
SMALL
No Charge or Current Charge


@<TRIPOS>ATOM
      1 C2          -6.4600    -3.1430    -0.5510 ca         1 5AJ       0.180900
      2 C4          -4.7120    -1.7020    -0.2060 ca         1 5AJ       0.150500
      3 C5          -3.8240    -2.7230    -0.4690 ca         1 5AJ      -0.090600
      4 C6          -4.3510    -3.9930    -0.7850 ca         1 5AJ       0.445900
      5 N9          -3.9790    -0.5740     0.0740 na         1 5AJ      -0.270300
      6 NBH         -2.4290     5.8010    -2.1450 n1         1 5AJ      -0.078000
      7 NBG         -2.1150     4.8710    -1.5710 n1         1 5AJ       0.223000
      8 NBF         -1.8790     3.7800    -1.0270 n2         1 5AJ      -0.395200
      9 CBE         -2.4530     3.5740     0.3140 c3         1 5AJ       0.143800
     10 CBC         -3.9130     3.0390     0.2290 c5         1 5AJ       0.112300
     11 OBD         -3.9270     1.7560    -0.4610 os         1 5AJ      -0.430000
     12 CBB         -4.5700     2.7800     1.6330 c5         1 5AJ       0.101300
     13 OBI         -6.0030     2.9260     1.6150 oh         1 5AJ      -0.687000
     14 CBA         -4.1810     1.2930     1.8570 c5         1 5AJ       0.130300
     15 OBJ         -4.9890     0.7130     2.8910 oh         1 5AJ      -0.670000
     16 CAZ         -4.4820     0.7570     0.4220 c5         1 5AJ       0.315300
     17 N3          -6.0460    -1.8920    -0.2430 nb         1 5AJ      -0.208000
     18 N1          -5.6740    -4.2120    -0.8240 nb         1 5AJ      -0.299000
     19 N6          -3.5610    -5.0670    -1.0550 nv         1 5AJ      -1.066900
     20 N7          -2.4950    -2.3210    -0.3700 nc         1 5AJ      -0.578100
     21 C8          -2.6540    -1.0300    -0.0470 cd         1 5AJ       0.403700
     22 SAP         -1.2880     0.0600     0.2450 ss         1 5AJ      -0.104200
     23 CAO          0.1980    -1.0100    -0.0550 c3         1 5AJ      -0.076400
     24 CAM          1.5260    -0.2760     0.1540 c          1 5AJ       0.609100
     25 OAN          1.6120     0.8640     0.5890 o          1 5AJ      -0.585100
     26 NAL          2.6410    -1.0080    -0.1870 ns         1 5AJ      -0.508900
     27 CAK          4.0150    -0.5130    -0.0730 c3         1 5AJ       0.110000
     28 CAJ          5.0430    -1.6060    -0.4110 c3         1 5AJ      -0.106700
     29 CAH          6.4570    -1.1150    -0.2880 cc         1 5AJ       0.409800
     30 NAI          7.2360    -1.2640     0.8560 na         1 5AJ      -0.313600
     31 CAD          8.4400    -0.6890     0.5920 ca         1 5AJ      -0.079200
     32 CAC          9.5780    -0.5630     1.3970 ca         1 5AJ      -0.116000
     33 CAB         10.6970     0.0940     0.8430 ca         1 5AJ      -0.091000
     34 CAA         10.6440     0.5980    -0.4800 ca         1 5AJ      -0.134000
     35 CAF          9.4730     0.4490    -1.2580 ca         1 5AJ      -0.046000
     36 CAE          8.3740    -0.2080    -0.6840 ca         1 5AJ       0.070400
     37 NAG          7.1320    -0.4660    -1.2570 nd         1 5AJ      -0.569100
     38 H1          -7.5360    -3.3080    -0.5810 h5         1 5AJ       0.048100
     39 H3          -1.8410     2.8620     0.8810 h1         1 5AJ       0.070700
     40 H4          -2.4590     4.5130     0.8850 h1         1 5AJ       0.070700
     41 H5          -4.5070     3.7570    -0.3520 h1         1 5AJ       0.063700
     42 H6          -4.1320     3.4270     2.4070 h1         1 5AJ       0.052700
     43 H7          -6.2060     3.8870     1.5140 ho         1 5AJ       0.505000
     44 H8          -3.1160     1.1930     2.1020 h1         1 5AJ       0.059700
     45 H9          -5.8150     1.2580     2.8800 ho         1 5AJ       0.510000
     46 H10         -5.5700     0.7200     0.2750 h2         1 5AJ       0.123700
     47 H11         -2.5760    -4.9740    -0.8180 hn         1 5AJ       0.503000
     48 H12         -3.9650    -5.9950    -0.9720 hn         1 5AJ       0.503000
     49 H13          0.1730    -1.8680     0.6270 h1         1 5AJ       0.092700
     50 H14          0.1700    -1.3810    -1.0850 h1         1 5AJ       0.092700
     51 H15          2.4870    -1.9460    -0.5400 hn         1 5AJ       0.314500
     52 H16          4.1450     0.3380    -0.7560 h1         1 5AJ       0.071200
     53 H17          4.1830    -0.1560     0.9520 h1         1 5AJ       0.071200
     54 H18          4.8930    -2.4640     0.2550 hc         1 5AJ       0.057700
     55 H19          4.8690    -1.9650    -1.4320 hc         1 5AJ       0.057700
     56 H20          6.9510    -1.7160     1.7150 hn         1 5AJ       0.354000
     57 H21          9.6010    -0.9560     2.4110 ha         1 5AJ       0.117000
     58 H22         11.6030     0.2140     1.4330 ha         1 5AJ       0.113000
     59 H23         11.5100     1.1040    -0.9010 ha         1 5AJ       0.115000
     60 H24          9.4230     0.8320    -2.2740 ha         1 5AJ       0.130000
@<TRIPOS>BOND
     1     1    17 ar  
     2     1    18 ar  
     3     1    38 1   
     4     2     3 ar  
     5     2     5 1   
     6     2    17 ar  
     7     3     4 ar  
     8     3    20 1   
     9     4    18 ar  
    10     4    19 1   
    11     5    16 1   
    12     5    21 1   
    13     6     7 3   
    14     7     8 1   
    15     8     9 1   
    16     9    10 1   
    17     9    39 1   
    18     9    40 1   
    19    10    11 1   
    20    10    12 1   
    21    10    41 1   
    22    11    16 1   
    23    12    13 1   
    24    12    14 1   
    25    12    42 1   
    26    13    43 1   
    27    14    15 1   
    28    14    16 1   
    29    14    44 1   
    30    15    45 1   
    31    16    46 1   
    32    19    47 1   
    33    19    48 1   
    34    20    21 2   
    35    21    22 1   
    36    22    23 1   
    37    23    24 1   
    38    23    49 1   
    39    23    50 1   
    40    24    25 2   
    41    24    26 1   
    42    26    27 1   
    43    26    51 1   
    44    27    28 1   
    45    27    52 1   
    46    27    53 1   
    47    28    29 1   
    48    28    54 1   
    49    28    55 1   
    50    29    30 1   
    51    29    37 2   
    52    30    31 1   
    53    30    56 1   
    54    31    32 ar  
    55    31    36 ar  
    56    32    33 ar  
    57    32    57 1   
    58    33    34 ar  
    59    33    58 1   
    60    34    35 ar  
    61    34    59 1   
    62    35    36 ar  
    63    35    60 1   
    64    36    37 1   
@<TRIPOS>SUBSTRUCTURE
     1 5AJ         1 TEMP              0 ****  ****    0 ROOT
