@<TRIPOS>MOLECULE
5AJ
   60    64     1     0     0
SMALL
abcg2


@<TRIPOS>ATOM
      1 C2          -6.4630    -2.9420    -0.2550 ca         1 5AJ       0.180900
      2 C4          -4.6930    -1.6450    -0.2210 ca         1 5AJ       0.150500
      3 C5          -3.8470    -2.6920    -0.5370 ca         1 5AJ      -0.090600
      4 C6          -4.4460    -3.9520    -0.7020 ca         1 5AJ       0.445900
      5 N9          -3.8840    -0.5440    -0.1080 na         1 5AJ      -0.270300
      6 NBH         -2.4320     5.4290    -2.5220 n1         1 5AJ      -0.078000
      7 NBG         -2.1280     4.5680    -1.8650 n1         1 5AJ       0.223000
      8 NBF         -1.7280     3.6000    -1.2450 n2         1 5AJ      -0.395200
      9 CBE         -2.2090     3.4660     0.1300 c3         1 5AJ       0.143800
     10 CBC         -3.6410     2.9600     0.2020 c5         1 5AJ       0.112300
     11 OBD         -3.7760     1.7330    -0.5220 os         1 5AJ      -0.430000
     12 CBB         -4.0880     2.6750     1.6470 c5         1 5AJ       0.101300
     13 OBI         -5.4450     2.9600     1.8580 oh         1 5AJ      -0.687000
     14 CBA         -3.9090     1.1570     1.7230 c5         1 5AJ       0.130300
     15 OBJ         -4.6870     0.4820     2.6560 oh         1 5AJ      -0.670000
     16 CAZ         -4.3310     0.7570     0.3120 c5         1 5AJ       0.315300
     17 N3          -6.0110    -1.7130    -0.0690 nb         1 5AJ      -0.208000
     18 N1          -5.7730    -4.0380    -0.5530 nb         1 5AJ      -0.299000
     19 N6          -3.7480    -5.0470    -1.0120 nv         1 5AJ      -1.066900
     20 N7          -2.5490    -2.2590    -0.6310 nc         1 5AJ      -0.578100
     21 C8          -2.6050    -0.9860    -0.3690 cd         1 5AJ       0.403700
     22 SAP         -1.2580     0.1190    -0.3790 ss         1 5AJ      -0.104200
     23 CAO          0.0760    -1.1030    -0.3480 c3         1 5AJ      -0.076400
     24 CAM          1.3690    -0.3200    -0.2370 c          1 5AJ       0.609100
     25 OAN          1.3760     0.9020    -0.2090 o          1 5AJ      -0.585100
     26 NAL          2.4750    -1.0670    -0.1780 ns         1 5AJ      -0.508900
     27 CAK          3.7970    -0.4810    -0.0840 c3         1 5AJ       0.110000
     28 CAJ          4.8490    -1.5810    -0.0510 c3         1 5AJ      -0.106700
     29 CAH          6.2240    -1.0090     0.0060 cc         1 5AJ       0.409800
     30 NAI          7.1420    -1.4270     0.9130 na         1 5AJ      -0.313600
     31 CAD          8.2930    -0.7170     0.6940 ca         1 5AJ      -0.079200
     32 CAC          9.5380    -0.7240     1.3100 ca         1 5AJ      -0.116000
     33 CAB         10.4840     0.1540     0.8090 ca         1 5AJ      -0.091000
     34 CAA         10.1940     1.0070    -0.2680 ca         1 5AJ      -0.134000
     35 CAF          8.9500     1.0070    -0.8740 ca         1 5AJ      -0.046000
     36 CAE          7.9830     0.1300    -0.3840 ca         1 5AJ       0.070400
     37 NAG          6.6850    -0.0800    -0.7870 nd         1 5AJ      -0.569100
     38 H1          -7.5350    -3.0780    -0.1500 h5         1 5AJ       0.048100
     39 H3          -1.5220     2.7760     0.6170 h1         1 5AJ       0.070700
     40 H4          -2.1520     4.4190     0.6630 h1         1 5AJ       0.070700
     41 H5          -4.3040     3.7060    -0.2510 h1         1 5AJ       0.063700
     42 H6          -3.4500     3.2020     2.3680 h1         1 5AJ       0.052700
     43 H7          -5.5710     3.9120     1.7970 ho         1 5AJ       0.505000
     44 H8          -2.8400     0.9430     1.8490 h1         1 5AJ       0.059700
     45 H9          -4.3000     0.6020     3.5290 ho         1 5AJ       0.510000
     46 H10         -5.4250     0.7300     0.2450 h2         1 5AJ       0.123700
     47 H11         -2.7440    -5.0260    -1.0480 hn         1 5AJ       0.503000
     48 H12         -4.2040    -5.9430    -1.0480 hn         1 5AJ       0.503000
     49 H13         -0.0440    -1.7800     0.4980 h1         1 5AJ       0.092700
     50 H14          0.0660    -1.7030    -1.2590 h1         1 5AJ       0.092700
     51 H15          2.3910    -2.0710    -0.2040 hn         1 5AJ       0.314500
     52 H16          3.9750     0.1760    -0.9370 h1         1 5AJ       0.071200
     53 H17          3.8730     0.1310     0.8180 h1         1 5AJ       0.071200
     54 H18          4.6880    -2.2330     0.8100 hc         1 5AJ       0.057700
     55 H19          4.7620    -2.2070    -0.9440 hc         1 5AJ       0.057700
     56 H20          6.9940    -2.1260     1.6230 hn         1 5AJ       0.354000
     57 H21          9.7610    -1.3810     2.1410 ha         1 5AJ       0.117000
     58 H22         11.4690     0.1840     1.2560 ha         1 5AJ       0.113000
     59 H23         10.9620     1.6780    -0.6290 ha         1 5AJ       0.115000
     60 H24          8.7330     1.6660    -1.7050 ha         1 5AJ       0.130000
@<TRIPOS>BOND
     1     1    17 ar  
     2     1    18 ar  
     3     1    38 1   
     4     2     3 ar  
     5     2     5 1   
     6     2    17 ar  
     7     3     4 ar  
     8     3    20 1   
     9     4    18 ar  
    10     4    19 1   
    11     5    16 1   
    12     5    21 1   
    13     6     7 3   
    14     7     8 1   
    15     8     9 1   
    16     9    10 1   
    17     9    39 1   
    18     9    40 1   
    19    10    11 1   
    20    10    12 1   
    21    10    41 1   
    22    11    16 1   
    23    12    13 1   
    24    12    14 1   
    25    12    42 1   
    26    13    43 1   
    27    14    15 1   
    28    14    16 1   
    29    14    44 1   
    30    15    45 1   
    31    16    46 1   
    32    19    47 1   
    33    19    48 1   
    34    20    21 2   
    35    21    22 1   
    36    22    23 1   
    37    23    24 1   
    38    23    49 1   
    39    23    50 1   
    40    24    25 2   
    41    24    26 1   
    42    26    27 1   
    43    26    51 1   
    44    27    28 1   
    45    27    52 1   
    46    27    53 1   
    47    28    29 1   
    48    28    54 1   
    49    28    55 1   
    50    29    30 1   
    51    29    37 2   
    52    30    31 1   
    53    30    56 1   
    54    31    32 ar  
    55    31    36 ar  
    56    32    33 ar  
    57    32    57 1   
    58    33    34 ar  
    59    33    58 1   
    60    34    35 ar  
    61    34    59 1   
    62    35    36 ar  
    63    35    60 1   
    64    36    37 1   
@<TRIPOS>SUBSTRUCTURE
     1 5AJ         1 TEMP              0 ****  ****    0 ROOT
