@<TRIPOS>MOLECULE
5AK
   56    59     1     0     0
SMALL
abcg2


@<TRIPOS>ATOM
      1 C4          -5.4100    -1.2500     0.0730 ca         1 5AK       0.152500
      2 C5          -4.5880    -2.3610     0.0310 ca         1 5AK      -0.092600
      3 C6          -5.2200    -3.6110     0.1300 ca         1 5AK       0.446900
      4 C8          -3.3010    -0.6910    -0.1470 cc         1 5AK       0.407700
      5 N1          -6.5530    -3.6300     0.2520 nb         1 5AK      -0.299000
      6 N3          -6.7330    -1.2510     0.1900 nb         1 5AK      -0.207000
      7 CAK          6.2610    -0.5290     0.0750 ca         1 5AK      -0.079000
      8 CAW          7.5170     0.0210    -0.1290 ca         1 5AK      -0.015900
      9 BR           8.5230     0.6000     1.3640 br         1 5AK      -0.096100
     10 CAI          8.0540     0.1540    -1.4010 ca         1 5AK      -0.080000
     11 CAG          7.3020    -0.2810    -2.4840 ca         1 5AK      -0.106000
     12 CAJ          6.0440    -0.8330    -2.2960 ca         1 5AK      -0.092000
     13 CAY          5.5120    -0.9630    -1.0160 ca         1 5AK      -0.083300
     14 CAN          4.1320    -1.5200    -0.8070 c3         1 5AK      -0.050100
     15 CAM          3.0940    -0.4030    -0.8240 c3         1 5AK       0.105000
     16 NAS          1.7660    -0.9470    -0.6260 ns         1 5AK      -0.503900
     17 CAV          0.6860    -0.1690    -0.5170 c          1 5AK       0.608100
     18 OAB          0.7180     1.0510    -0.5800 o          1 5AK      -0.591100
     19 CAO         -0.6180    -0.9110    -0.2980 c3         1 5AK      -0.066400
     20 SAU         -1.9150     0.3450    -0.3310 ss         1 5AK      -0.144200
     21 N7          -3.2750    -1.9910    -0.1110 nd         1 5AK      -0.579100
     22 N6          -4.5500    -4.7650     0.0940 nv         1 5AK      -1.066900
     23 C2          -7.2180    -2.4800     0.2710 ca         1 5AK       0.182900
     24 N9          -4.5720    -0.1710    -0.0380 na         1 5AK      -0.270300
     25 C1          -5.0050     1.2030     0.0080 c5         1 5AK       0.316300
     26 O4          -4.3480     1.9350    -0.9860 os         1 5AK      -0.451000
     27 C7          -4.1760     3.2960    -0.5550 c5         1 5AK       0.090300
     28 C9          -2.6990     3.6600    -0.5380 c3         1 5AK       0.155600
     29 O5          -2.0650     3.4310    -1.7700 oh         1 5AK      -0.704000
     30 C3          -4.8120     3.3890     0.8370 c5         1 5AK       0.101300
     31 O3          -6.1750     3.7230     0.7950 oh         1 5AK      -0.690000
     32 C10         -4.7000     1.9380     1.3100 c5         1 5AK       0.131300
     33 O2          -5.5860     1.5310     2.3000 oh         1 5AK      -0.671000
     34 H2           9.0340     0.5830    -1.5560 ha         1 5AK       0.132000
     35 H3           7.7090    -0.1860    -3.4820 ha         1 5AK       0.120000
     36 H4           5.4730    -1.1710    -3.1520 ha         1 5AK       0.117000
     37 H5           3.9050    -2.2450    -1.5930 hc         1 5AK       0.053200
     38 H6           4.0830    -2.0500     0.1470 hc         1 5AK       0.053200
     39 H7           3.3160     0.3210    -0.0360 h1         1 5AK       0.060200
     40 H8           3.1430     0.1340    -1.7760 h1         1 5AK       0.060200
     41 H9           1.6550    -1.9480    -0.5910 hn         1 5AK       0.318500
     42 H10         -0.7860    -1.6530    -1.0790 h1         1 5AK       0.095700
     43 H11         -0.6100    -1.4300     0.6610 h1         1 5AK       0.095700
     44 H12         -5.0330    -5.6350     0.2350 hn         1 5AK       0.503500
     45 H13         -3.5450    -4.7790     0.0820 hn         1 5AK       0.503500
     46 H14         -8.2950    -2.5630     0.3670 h5         1 5AK       0.049100
     47 H15         -6.0890     1.1740    -0.1510 h2         1 5AK       0.125700
     48 H16         -4.6970     3.9460    -1.2660 h1         1 5AK       0.081700
     49 H17         -2.6240     4.7300    -0.3280 h1         1 5AK       0.046700
     50 H18         -2.1900     3.1390     0.2830 h1         1 5AK       0.046700
     51 H19         -1.9570     2.4800    -1.8800 ho         1 5AK       0.524000
     52 H20         -4.2490     4.0740     1.4840 h1         1 5AK       0.053700
     53 H21         -6.2580     4.6080     0.4280 ho         1 5AK       0.506000
     54 H22         -3.6540     1.7510     1.5940 h1         1 5AK       0.055700
     55 H23         -5.2980     1.8930     3.1430 ho         1 5AK       0.511000
     56 H1           5.8580    -0.6310     1.0750 ha         1 5AK       0.129000
@<TRIPOS>BOND
     1     1     2 ar  
     2     1     6 ar  
     3     1    24 1   
     4     2     3 ar  
     5     2    21 1   
     6     3     5 ar  
     7     3    22 1   
     8     4    20 1   
     9     4    21 2   
    10     4    24 1   
    11     5    23 ar  
    12     6    23 ar  
    13     7     8 ar  
    14     7    13 ar  
    15     7    56 1   
    16     8     9 1   
    17     8    10 ar  
    18    10    11 ar  
    19    10    34 1   
    20    11    12 ar  
    21    11    35 1   
    22    12    13 ar  
    23    12    36 1   
    24    13    14 1   
    25    14    15 1   
    26    14    37 1   
    27    14    38 1   
    28    15    16 1   
    29    15    39 1   
    30    15    40 1   
    31    16    17 1   
    32    16    41 1   
    33    17    18 2   
    34    17    19 1   
    35    19    20 1   
    36    19    42 1   
    37    19    43 1   
    38    22    44 1   
    39    22    45 1   
    40    23    46 1   
    41    24    25 1   
    42    25    26 1   
    43    25    32 1   
    44    25    47 1   
    45    26    27 1   
    46    27    28 1   
    47    27    30 1   
    48    27    48 1   
    49    28    29 1   
    50    28    49 1   
    51    28    50 1   
    52    29    51 1   
    53    30    31 1   
    54    30    32 1   
    55    30    52 1   
    56    31    53 1   
    57    32    33 1   
    58    32    54 1   
    59    33    55 1   
@<TRIPOS>SUBSTRUCTURE
     1 5AK         1 TEMP              0 ****  ****    0 ROOT
