@<TRIPOS>MOLECULE
5AK
   56    59     1     0     0
SMALL
No Charge or Current Charge


@<TRIPOS>ATOM
      1 C4          -5.3940    -1.2570     0.0850 ca         1 5AK       0.152500
      2 C5          -4.5260    -2.3240    -0.0070 ca         1 5AK      -0.092600
      3 C6          -5.0740    -3.6240    -0.0270 ca         1 5AK       0.446900
      4 C8          -3.2950    -0.5920     0.0020 cc         1 5AK       0.407700
      5 N1          -6.3990    -3.8220     0.0500 nb         1 5AK      -0.299000
      6 N3          -6.7290    -1.4240     0.1610 nb         1 5AK      -0.207000
      7 CAK          6.5420    -0.9460     0.1090 ca         1 5AK      -0.079000
      8 CAW          7.8740    -0.5200    -0.0280 ca         1 5AK      -0.015900
      9 Br           8.9540    -0.2550     1.5290 br         1 5AK      -0.096100
     10 CAI          8.4150    -0.2860    -1.3030 ca         1 5AK      -0.080000
     11 CAG          7.6190    -0.4800    -2.4450 ca         1 5AK      -0.106000
     12 CAJ          6.2860    -0.9060    -2.3100 ca         1 5AK      -0.092000
     13 CAY          5.7410    -1.1430    -1.0330 ca         1 5AK      -0.083300
     14 CAN          4.2950    -1.5980    -0.8870 c3         1 5AK      -0.050100
     15 CAM          3.3320    -0.4080    -0.7250 c3         1 5AK       0.105000
     16 NAS          1.9410    -0.8440    -0.5830 ns         1 5AK      -0.503900
     17 CAV          0.8760     0.0120    -0.4130 c          1 5AK       0.608100
     18 OAB          1.0260     1.2260    -0.3680 o          1 5AK      -0.591100
     19 CAO         -0.4830    -0.6840    -0.2870 c3         1 5AK      -0.066400
     20 SAU         -1.9140     0.4930    -0.1520 ss         1 5AK      -0.144200
     21 N7          -3.1860    -1.9260    -0.0700 nd         1 5AK      -0.579100
     22 N6          -4.3050    -4.7430    -0.1150 nv         1 5AK      -1.066900
     23 C2          -7.1640    -2.7070     0.1400 ca         1 5AK       0.182900
     24 N9          -4.6130    -0.1330     0.0850 na         1 5AK      -0.270300
     25 C1          -5.0870     1.2410     0.2820 c5         1 5AK       0.316300
     26 O4          -4.8790     2.0190    -0.9170 os         1 5AK      -0.451000
     27 C7          -4.7690     3.4240    -0.5480 c5         1 5AK       0.090300
     28 C9          -3.3630     3.9320    -0.9670 c3         1 5AK       0.155600
     29 O5          -3.2080     3.8150    -2.3890 oh         1 5AK      -0.704000
     30 C3          -5.0330     3.4890     1.0000 c5         1 5AK       0.101300
     31 O3          -6.4330     3.6010     1.3220 oh         1 5AK      -0.690000
     32 C10         -4.4860     2.1030     1.4410 c5         1 5AK       0.131300
     33 O2          -4.9750     1.7650     2.7460 oh         1 5AK      -0.671000
     34 H2           9.4460     0.0440    -1.4070 ha         1 5AK       0.132000
     35 H3           8.0350    -0.2990    -3.4340 ha         1 5AK       0.120000
     36 H4           5.6770    -1.0510    -3.2000 ha         1 5AK       0.117000
     37 H5           3.9940    -2.1880    -1.7620 hc         1 5AK       0.053200
     38 H6           4.1950    -2.2620    -0.0180 hc         1 5AK       0.053200
     39 H7           3.6160     0.1730     0.1630 h1         1 5AK       0.060200
     40 H8           3.4110     0.2480    -1.6030 h1         1 5AK       0.060200
     41 H9           1.7360    -1.8360    -0.6090 hn         1 5AK       0.318500
     42 H10         -0.6220    -1.3210    -1.1680 h1         1 5AK       0.095700
     43 H11         -0.4540    -1.3240     0.6030 h1         1 5AK       0.095700
     44 H12         -4.7140    -5.6270     0.1760 hn         1 5AK       0.503500
     45 H13         -3.3070    -4.6260     0.0420 hn         1 5AK       0.503500
     46 H14         -8.2400    -2.8570     0.2020 h5         1 5AK       0.049100
     47 H15         -6.1680     1.1560     0.4510 h2         1 5AK       0.125700
     48 H16         -5.5230     4.0020    -1.0990 h1         1 5AK       0.081700
     49 H17         -3.2560     4.9810    -0.6570 h1         1 5AK       0.046700
     50 H18         -2.5920     3.3520    -0.4440 h1         1 5AK       0.046700
     51 H19         -3.5740     2.9270    -2.6200 ho         1 5AK       0.524000
     52 H20         -4.4680     4.3080     1.4690 h1         1 5AK       0.053700
     53 H21         -6.7290     4.5060     1.0600 ho         1 5AK       0.506000
     54 H22         -3.3900     2.0960     1.4310 h1         1 5AK       0.055700
     55 H23         -5.8130     2.2860     2.8250 ho         1 5AK       0.511000
     56 H1           6.1320    -1.1220     1.1010 ha         1 5AK       0.129000
@<TRIPOS>BOND
     1     1     2 ar  
     2     1     6 ar  
     3     1    24 1   
     4     2     3 ar  
     5     2    21 1   
     6     3     5 ar  
     7     3    22 1   
     8     4    20 1   
     9     4    21 2   
    10     4    24 1   
    11     5    23 ar  
    12     6    23 ar  
    13     7     8 ar  
    14     7    13 ar  
    15     7    56 1   
    16     8     9 1   
    17     8    10 ar  
    18    10    11 ar  
    19    10    34 1   
    20    11    12 ar  
    21    11    35 1   
    22    12    13 ar  
    23    12    36 1   
    24    13    14 1   
    25    14    15 1   
    26    14    37 1   
    27    14    38 1   
    28    15    16 1   
    29    15    39 1   
    30    15    40 1   
    31    16    17 1   
    32    16    41 1   
    33    17    18 2   
    34    17    19 1   
    35    19    20 1   
    36    19    42 1   
    37    19    43 1   
    38    22    44 1   
    39    22    45 1   
    40    23    46 1   
    41    24    25 1   
    42    25    26 1   
    43    25    32 1   
    44    25    47 1   
    45    26    27 1   
    46    27    28 1   
    47    27    30 1   
    48    27    48 1   
    49    28    29 1   
    50    28    49 1   
    51    28    50 1   
    52    29    51 1   
    53    30    31 1   
    54    30    32 1   
    55    30    52 1   
    56    31    53 1   
    57    32    33 1   
    58    32    54 1   
    59    33    55 1   
@<TRIPOS>SUBSTRUCTURE
     1 5AK         1 TEMP              0 ****  ****    0 ROOT
