@<TRIPOS>MOLECULE
5AM
   84    87     1     0     0
SMALL
bcc


@<TRIPOS>ATOM
      1 C1          -6.9290     0.6250    -1.8830 c3         1 5AM       0.209700
      2 C3          -4.9840    -0.2600    -0.8710 c          1 5AM       0.754100
      3 C7          -2.2970    -3.3080     1.1670 cc         1 5AM       0.502300
      4 C8          -8.0660     1.5120    -1.4760 ca         1 5AM      -0.102300
      5 C9          -9.2550     0.9650    -1.0030 ca         1 5AM      -0.102000
      6 C10        -10.2970     1.7870    -0.5960 ca         1 5AM      -0.134000
      7 C11        -10.1570     3.1670    -0.6540 ca         1 5AM      -0.115000
      8 C12         -8.9730     3.7220    -1.1250 ca         1 5AM      -0.134000
      9 C13         -7.9340     2.8970    -1.5330 ca         1 5AM      -0.102000
     10 C15         -2.0330    -0.3100     1.2790 c3         1 5AM      -0.082400
     11 C16         -1.2350     0.6800     0.4390 c3         1 5AM      -0.077400
     12 C22         -0.4610    -4.1600     0.7270 cd         1 5AM       0.522700
     13 N23         -1.3280    -3.3570     0.2100 nc         1 5AM      -0.688000
     14 N26          1.5070    -3.3750    -0.3960 n3         1 5AM      -0.708600
     15 C27          1.8450    -2.3690     0.5940 c6         1 5AM       0.148300
     16 N29          3.5060    -1.4320    -0.9250 n          1 5AM      -0.485800
     17 C30          3.2370    -2.4930    -1.8770 c6         1 5AM       0.097000
     18 C31          2.6800    -3.7210    -1.1770 c6         1 5AM       0.148300
     19 C32          4.6710    -0.7420    -0.9510 c          1 5AM       0.677100
     20 C33          4.8320     0.3740     0.0630 c3         1 5AM      -0.160400
     21 C35          6.1060     1.1820    -0.1210 c3         1 5AM      -0.062400
     22 O2          -6.0520     0.5350    -0.7530 os         1 5AM      -0.435900
     23 N4          -4.2360    -0.2190     0.2480 ns         1 5AM      -0.560900
     24 C5          -3.0800    -1.0590     0.4520 c3         1 5AM       0.097700
     25 O14         -4.7310    -0.9150    -1.8620 o          1 5AM      -0.592000
     26 C17         -0.0660     1.2950     1.1960 c3         1 5AM      -0.081400
     27 C18          0.7980     2.1840     0.3160 c3         1 5AM       0.146800
     28 N19          2.0160     2.5850     1.0030 n8         1 5AM      -0.898800
     29 N20         -2.0530    -4.0540     2.1990 nd         1 5AM      -0.363300
     30 O21         -0.8400    -4.6200     1.9100 os         1 5AM      -0.136100
     31 O24         -4.1670    -2.2900     2.2830 oh         1 5AM      -0.571800
     32 C25          0.8770    -4.5370     0.1860 c3         1 5AM       0.140500
     33 C28          2.3680    -1.1190    -0.0870 c6         1 5AM       0.097000
     34 O34          5.5630    -1.0120    -1.7440 o          1 5AM      -0.605100
     35 C36          6.1960     2.3000     0.9190 c3         1 5AM      -0.033100
     36 C37          7.4260     3.1440     0.7350 ca         1 5AM      -0.077300
     37 C38          8.6350     2.7810     1.3270 ca         1 5AM      -0.125000
     38 C39          7.3960     4.2830    -0.0670 ca         1 5AM      -0.125000
     39 C40          9.7830     3.5360     1.1250 ca         1 5AM      -0.126500
     40 C41          8.5410     5.0410    -0.2720 ca         1 5AM      -0.126500
     41 C42          9.7400     4.6700     0.3230 ca         1 5AM      -0.129000
     42 C6          -3.4970    -2.4130     1.0630 c3         1 5AM       0.101800
     43 H11A        -6.3940     1.0450    -2.7370 h1         1 5AM       0.056700
     44 H12A        -7.2910    -0.3670    -2.1620 h1         1 5AM       0.056700
     45 H9          -9.3710    -0.1120    -0.9570 ha         1 5AM       0.133000
     46 H10        -11.2180     1.3500    -0.2320 ha         1 5AM       0.132500
     47 H11        -10.9690     3.8090    -0.3380 ha         1 5AM       0.131000
     48 H12         -8.8590     4.7970    -1.1760 ha         1 5AM       0.132500
     49 H13         -7.0150     3.3340    -1.9040 ha         1 5AM       0.133000
     50 H151        -1.3340    -1.0230     1.7260 hc         1 5AM       0.043200
     51 H152        -2.5070     0.2050     2.1220 hc         1 5AM       0.043200
     52 H161        -1.8920     1.4670     0.0570 hc         1 5AM       0.051200
     53 H162        -0.8470     0.1520    -0.4400 hc         1 5AM       0.051200
     54 H271         0.9540    -2.0870     1.1590 h1         1 5AM       0.042450
     55 H272         2.5870    -2.7400     1.3190 h1         1 5AM       0.042450
     56 H301         4.1520    -2.7570    -2.3990 h1         1 5AM       0.064700
     57 H302         2.5160    -2.1400    -2.6230 h1         1 5AM       0.064700
     58 H311         3.4690    -4.1740    -0.5530 h1         1 5AM       0.042450
     59 H312         2.4040    -4.4580    -1.9340 h1         1 5AM       0.042450
     60 H331         3.9690     1.0450     0.0290 hc         1 5AM       0.064200
     61 H332         4.8140    -0.0610     1.0680 hc         1 5AM       0.064200
     62 H351         6.9850     0.5380    -0.0380 hc         1 5AM       0.058700
     63 H352         6.1330     1.6190    -1.1230 hc         1 5AM       0.058700
     64 HN4         -4.5930     0.2900     1.0420 hn         1 5AM       0.328500
     65 H5          -2.6490    -1.2760    -0.5270 h1         1 5AM       0.111700
     66 H171         0.5580     0.4970     1.6110 hc         1 5AM       0.042200
     67 H172        -0.4350     1.8680     2.0540 hc         1 5AM       0.042200
     68 H181         0.1940     3.0310    -0.0400 h1         1 5AM       0.031200
     69 H182         1.0870     1.6220    -0.5770 h1         1 5AM       0.031200
     70 H191         2.5710     3.1710     0.3940 hn         1 5AM       0.340800
     71 H192         1.7810     3.1660     1.7990 hn         1 5AM       0.340800
     72 HO24        -3.5550    -1.9720     2.9570 ho         1 5AM       0.411000
     73 H251         1.4700    -5.0080     0.9840 h1         1 5AM       0.068200
     74 H252         0.7360    -5.2930    -0.5920 h1         1 5AM       0.068200
     75 H281         2.6180    -0.3810     0.6700 h1         1 5AM       0.064700
     76 H282         1.5680    -0.6930    -0.7050 h1         1 5AM       0.064700
     77 H361         5.3040     2.9290     0.8520 hc         1 5AM       0.043200
     78 H362         6.1920     1.8620     1.9210 hc         1 5AM       0.043200
     79 H38          8.6750     1.9000     1.9570 ha         1 5AM       0.126500
     80 H39          6.4640     4.5830    -0.5310 ha         1 5AM       0.126500
     81 H40         10.7110     3.2410     1.5980 ha         1 5AM       0.129000
     82 H41          8.4960     5.9260    -0.8950 ha         1 5AM       0.129000
     83 H42         10.6330     5.2610     0.1670 ha         1 5AM       0.130000
     84 H6          -4.2040    -2.8820     0.3690 h1         1 5AM       0.115700
@<TRIPOS>BOND
     1     1     4 1   
     2     1    22 1   
     3     1    43 1   
     4     1    44 1   
     5     2    22 1   
     6     2    23 1   
     7     2    25 2   
     8     3    13 1   
     9     3    29 2   
    10     3    42 1   
    11     4     5 ar  
    12     4     9 ar  
    13     5     6 ar  
    14     5    45 1   
    15     6     7 ar  
    16     6    46 1   
    17     7     8 ar  
    18     7    47 1   
    19     8     9 ar  
    20     8    48 1   
    21     9    49 1   
    22    10    11 1   
    23    10    24 1   
    24    10    50 1   
    25    10    51 1   
    26    11    26 1   
    27    11    52 1   
    28    11    53 1   
    29    12    13 2   
    30    12    30 1   
    31    12    32 1   
    32    14    15 1   
    33    14    18 1   
    34    14    32 1   
    35    15    33 1   
    36    15    54 1   
    37    15    55 1   
    38    16    17 1   
    39    16    19 1   
    40    16    33 1   
    41    17    18 1   
    42    17    56 1   
    43    17    57 1   
    44    18    58 1   
    45    18    59 1   
    46    19    20 1   
    47    19    34 2   
    48    20    21 1   
    49    20    60 1   
    50    20    61 1   
    51    21    35 1   
    52    21    62 1   
    53    21    63 1   
    54    23    24 1   
    55    23    64 1   
    56    24    42 1   
    57    24    65 1   
    58    26    27 1   
    59    26    66 1   
    60    26    67 1   
    61    27    28 1   
    62    27    68 1   
    63    27    69 1   
    64    28    70 1   
    65    28    71 1   
    66    29    30 1   
    67    31    42 1   
    68    31    72 1   
    69    32    73 1   
    70    32    74 1   
    71    33    75 1   
    72    33    76 1   
    73    35    36 1   
    74    35    77 1   
    75    35    78 1   
    76    36    37 ar  
    77    36    38 ar  
    78    37    39 ar  
    79    37    79 1   
    80    38    40 ar  
    81    38    80 1   
    82    39    41 ar  
    83    39    81 1   
    84    40    41 ar  
    85    40    82 1   
    86    41    83 1   
    87    42    84 1   
@<TRIPOS>SUBSTRUCTURE
     1 5AM         1 TEMP              0 ****  ****    0 ROOT
