@<TRIPOS>MOLECULE
5AM
   84    87     1     0     0
SMALL
No Charge or Current Charge


@<TRIPOS>ATOM
      1 C1          -7.4450     0.3320    -2.0160 c3         1 5AM       0.232900
      2 C3          -5.4090    -0.2980    -0.9340 c          1 5AM       0.638100
      3 C7          -2.1950    -2.9740     0.9820 cc         1 5AM       0.502300
      4 C8          -8.7290     1.0830    -1.6900 ca         1 5AM      -0.102300
      5 C9          -9.8480     0.3930    -1.1840 ca         1 5AM      -0.084000
      6 C10        -11.0340     1.0870    -0.8840 ca         1 5AM      -0.116000
      7 C11        -11.1070     2.4760    -1.0870 ca         1 5AM      -0.097000
      8 C12         -9.9930     3.1700    -1.5890 ca         1 5AM      -0.116000
      9 C13         -8.8070     2.4760    -1.8890 ca         1 5AM      -0.084000
     10 C15         -2.7380     0.0370     1.6820 c3         1 5AM      -0.082400
     11 C16         -2.5170     1.5290     1.3310 c3         1 5AM      -0.077400
     12 C22         -0.3710    -3.7720     0.3930 cd         1 5AM       0.478300
     13 N23         -1.4550    -3.2340    -0.1340 nc         1 5AM      -0.688000
     14 N26          1.8680    -3.2110    -0.7330 n3         1 5AM      -0.708600
     15 C27          2.4760    -2.5540     0.4540 c6         1 5AM       0.148300
     16 N29          4.4440    -1.7410    -0.9980 n          1 5AM      -0.418800
     17 C30          3.9240    -2.6390    -2.0770 c6         1 5AM       0.097000
     18 C31          2.9470    -3.7470    -1.6010 c6         1 5AM       0.148300
     19 C32          5.5290    -0.8810    -1.2830 c          1 5AM       0.610100
     20 C33          6.0350     0.0610    -0.1710 c3         1 5AM      -0.160400
     21 C35          7.3190     0.8650    -0.4970 c3         1 5AM      -0.062400
     22 O2          -6.6120     0.3280    -0.8450 os         1 5AM      -0.459100
     23 N4          -4.7670    -0.1960     0.2660 ns         1 5AM      -0.493900
     24 C5          -3.4500    -0.7760     0.5640 c3         1 5AM       0.097700
     25 O14         -4.9650    -0.8620    -1.9210 o          1 5AM      -0.543000
     26 C17         -1.7540     2.3000     2.4320 c3         1 5AM      -0.081400
     27 C18         -1.5360     3.7860     2.0800 c3         1 5AM       0.146800
     28 N19         -0.8070     4.4940     3.1490 n8         1 5AM      -1.009200
     29 N20         -1.6540    -3.3140     2.1430 nd         1 5AM      -0.363300
     30 O21         -0.4120    -3.8620     1.7520 os         1 5AM      -0.091700
     31 O24         -4.4250    -2.5380     2.0100 oh         1 5AM      -0.634000
     32 C25          0.8500    -4.2550    -0.3780 c3         1 5AM       0.140500
     33 C28          3.4430    -1.4030     0.0660 c6         1 5AM       0.097000
     34 O34          6.0870    -0.9240    -2.3730 o          1 5AM      -0.605100
     35 C36          7.7700     1.7780     0.6620 c3         1 5AM      -0.033100
     36 C37          9.0330     2.5560     0.3180 ca         1 5AM      -0.077300
     37 C38         10.3010     2.0140     0.6040 ca         1 5AM      -0.107000
     38 C39          8.9440     3.8210    -0.2960 ca         1 5AM      -0.107000
     39 C40         11.4680     2.7300     0.2820 ca         1 5AM      -0.108500
     40 C41         10.1100     4.5370    -0.6180 ca         1 5AM      -0.108500
     41 C42         11.3720     3.9920    -0.3290 ca         1 5AM      -0.111000
     42 C6          -3.5630    -2.3050     0.8600 c3         1 5AM       0.125000
     43 H11A        -6.9350     0.8240    -2.8550 h1         1 5AM       0.056700
     44 H12A        -7.6880    -0.6940    -2.3240 h1         1 5AM       0.056700
     45 H9          -9.7990    -0.6820    -1.0210 ha         1 5AM       0.115000
     46 H10        -11.8950     0.5490    -0.4940 ha         1 5AM       0.114500
     47 H11        -12.0240     3.0130    -0.8550 ha         1 5AM       0.113000
     48 H12        -10.0480     4.2450    -1.7450 ha         1 5AM       0.114500
     49 H13         -7.9480     3.0220    -2.2750 ha         1 5AM       0.115000
     50 H151        -1.7590    -0.4140     1.8880 hc         1 5AM       0.043200
     51 H152        -3.3190    -0.0300     2.6100 hc         1 5AM       0.043200
     52 H161        -3.4850     2.0170     1.1630 hc         1 5AM       0.051200
     53 H162        -1.9560     1.5990     0.3900 hc         1 5AM       0.051200
     54 H271         1.6980    -2.1390     1.1100 h1         1 5AM       0.042450
     55 H272         3.0340    -3.2940     1.0470 h1         1 5AM       0.042450
     56 H301         4.7660    -3.1220    -2.5920 h1         1 5AM       0.064700
     57 H302         3.4060    -2.0180    -2.8210 h1         1 5AM       0.064700
     58 H311         3.5220    -4.5120    -1.0590 h1         1 5AM       0.042450
     59 H312         2.5190    -4.2370    -2.4880 h1         1 5AM       0.042450
     60 H331         5.2100     0.7280     0.1070 hc         1 5AM       0.064200
     61 H332         6.1520    -0.5320     0.7430 hc         1 5AM       0.064200
     62 H351         8.1300     0.1670    -0.7400 hc         1 5AM       0.058700
     63 H352         7.1460     1.4790    -1.3900 hc         1 5AM       0.058700
     64 HN4         -5.2750     0.2790     1.0000 hn         1 5AM       0.328500
     65 H5          -2.8360    -0.6760    -0.3440 h1         1 5AM       0.111700
     66 H171        -0.7810     1.8220     2.5980 hc         1 5AM       0.042200
     67 H172        -2.3140     2.2290     3.3730 hc         1 5AM       0.042200
     68 H181        -2.5080     4.2780     1.9300 h1         1 5AM       0.031200
     69 H182        -0.9590     3.8650     1.1480 h1         1 5AM       0.031200
     70 H191        -0.7420     5.4910     2.9060 hn         1 5AM       0.396000
     71 H192        -1.3810     4.4930     4.0010 hn         1 5AM       0.396000
     72 HO24        -3.8670    -2.4440     2.8150 ho         1 5AM       0.450000
     73 H251         1.3220    -5.0510     0.2130 h1         1 5AM       0.068200
     74 H252         0.4780    -4.7290    -1.2960 h1         1 5AM       0.068200
     75 H281         3.9550    -1.0800     0.9820 h1         1 5AM       0.064700
     76 H282         2.8440    -0.5520    -0.2860 h1         1 5AM       0.064700
     77 H361         6.9570     2.4720     0.9110 hc         1 5AM       0.043200
     78 H362         7.9370     1.1670     1.5580 hc         1 5AM       0.043200
     79 H38         10.3840     1.0370     1.0740 ha         1 5AM       0.108500
     80 H39          7.9700     4.2480    -0.5260 ha         1 5AM       0.108500
     81 H40         12.4450     2.3070     0.5050 ha         1 5AM       0.111000
     82 H41         10.0340     5.5130    -1.0920 ha         1 5AM       0.111000
     83 H42         12.2750     4.5460    -0.5780 ha         1 5AM       0.112000
     84 H6          -4.0280    -2.7570    -0.0260 h1         1 5AM       0.115700
@<TRIPOS>BOND
     1     1     4 1   
     2     1    22 1   
     3     1    43 1   
     4     1    44 1   
     5     2    22 1   
     6     2    23 1   
     7     2    25 2   
     8     3    13 1   
     9     3    29 2   
    10     3    42 1   
    11     4     5 ar  
    12     4     9 ar  
    13     5     6 ar  
    14     5    45 1   
    15     6     7 ar  
    16     6    46 1   
    17     7     8 ar  
    18     7    47 1   
    19     8     9 ar  
    20     8    48 1   
    21     9    49 1   
    22    10    11 1   
    23    10    24 1   
    24    10    50 1   
    25    10    51 1   
    26    11    26 1   
    27    11    52 1   
    28    11    53 1   
    29    12    13 2   
    30    12    30 1   
    31    12    32 1   
    32    14    15 1   
    33    14    18 1   
    34    14    32 1   
    35    15    33 1   
    36    15    54 1   
    37    15    55 1   
    38    16    17 1   
    39    16    19 1   
    40    16    33 1   
    41    17    18 1   
    42    17    56 1   
    43    17    57 1   
    44    18    58 1   
    45    18    59 1   
    46    19    20 1   
    47    19    34 2   
    48    20    21 1   
    49    20    60 1   
    50    20    61 1   
    51    21    35 1   
    52    21    62 1   
    53    21    63 1   
    54    23    24 1   
    55    23    64 1   
    56    24    42 1   
    57    24    65 1   
    58    26    27 1   
    59    26    66 1   
    60    26    67 1   
    61    27    28 1   
    62    27    68 1   
    63    27    69 1   
    64    28    70 1   
    65    28    71 1   
    66    29    30 1   
    67    31    42 1   
    68    31    72 1   
    69    32    73 1   
    70    32    74 1   
    71    33    75 1   
    72    33    76 1   
    73    35    36 1   
    74    35    77 1   
    75    35    78 1   
    76    36    37 ar  
    77    36    38 ar  
    78    37    39 ar  
    79    37    79 1   
    80    38    40 ar  
    81    38    80 1   
    82    39    41 ar  
    83    39    81 1   
    84    40    41 ar  
    85    40    82 1   
    86    41    83 1   
    87    42    84 1   
@<TRIPOS>SUBSTRUCTURE
     1 5AM         1 TEMP              0 ****  ****    0 ROOT
