@<TRIPOS>MOLECULE
5AN
   14    14     1     0     0
SMALL
No Charge or Current Charge


@<TRIPOS>ATOM
      1 C4          -1.3470    -0.0210     0.0310 ca         1 5AN      -0.250000
      2 C5          -0.6510     0.0060    -1.1830 ca         1 5AN       0.242000
      3 C3          -0.6300    -0.0170     1.2340 ca         1 5AN       0.242000
      4 C6           0.7500     0.0370    -1.1980 ca         1 5AN      -0.253500
      5 C2           0.7700     0.0130     1.2250 ca         1 5AN      -0.253500
      6 C1           1.4540     0.0400     0.0080 ca         1 5AN       0.358000
      7 N            2.8160     0.0690    -0.0030 nv         1 5AN      -1.080000
      8 F5          -1.3340     0.0040    -2.3470 f          1 5AN      -0.175000
      9 F3          -1.2940    -0.0430     2.4100 f          1 5AN      -0.175000
     10 HC4         -2.4320    -0.0450     0.0400 ha         1 5AN       0.151000
     11 HC6          1.2770     0.0590    -2.1460 ha         1 5AN       0.134000
     12 HC2          1.3140     0.0170     2.1650 ha         1 5AN       0.134000
     13 HN1          3.3270    -0.1000     0.8610 hn         1 5AN       0.463000
     14 HN2          3.3150    -0.0830    -0.8780 hn         1 5AN       0.463000
@<TRIPOS>BOND
     1     1     2 ar  
     2     1     3 ar  
     3     1    10 1   
     4     2     4 ar  
     5     2     8 1   
     6     3     5 ar  
     7     3     9 1   
     8     4     6 ar  
     9     4    11 1   
    10     5     6 ar  
    11     5    12 1   
    12     6     7 1   
    13     7    13 1   
    14     7    14 1   
@<TRIPOS>SUBSTRUCTURE
     1 5AN         1 TEMP              0 ****  ****    0 ROOT
