@<TRIPOS>MOLECULE
5AN
   14    14     1     0     0
SMALL
abcg2


@<TRIPOS>ATOM
      1 C4          -1.3590    -0.0250     0.0320 ca         1 5AN      -0.250000
      2 C5          -0.6330     0.0070    -1.1450 ca         1 5AN       0.242000
      3 C3          -0.6130    -0.0160     1.1960 ca         1 5AN       0.242000
      4 C6           0.7430     0.0460    -1.1950 ca         1 5AN      -0.253500
      5 C2           0.7640     0.0220     1.2220 ca         1 5AN      -0.253500
      6 C1           1.4640     0.0560     0.0080 ca         1 5AN       0.358000
      7 N            2.8280     0.1450    -0.0020 nv         1 5AN      -1.080000
      8 F5          -1.3090    -0.0050    -2.3030 f          1 5AN      -0.175000
      9 F3          -1.2690    -0.0510     2.3650 f          1 5AN      -0.175000
     10 HC4         -2.4400    -0.0560     0.0400 ha         1 5AN       0.151000
     11 HC6          1.2560     0.0690    -2.1480 ha         1 5AN       0.134000
     12 HC2          1.2930     0.0260     2.1670 ha         1 5AN       0.134000
     13 HN1          3.3110    -0.1480     0.8310 hn         1 5AN       0.463000
     14 HN2          3.2980    -0.1340    -0.8480 hn         1 5AN       0.463000
@<TRIPOS>BOND
     1     1     2 ar  
     2     1     3 ar  
     3     1    10 1   
     4     2     4 ar  
     5     2     8 1   
     6     3     5 ar  
     7     3     9 1   
     8     4     6 ar  
     9     4    11 1   
    10     5     6 ar  
    11     5    12 1   
    12     6     7 1   
    13     7    13 1   
    14     7    14 1   
@<TRIPOS>SUBSTRUCTURE
     1 5AN         1 TEMP              0 ****  ****    0 ROOT
