@<TRIPOS>MOLECULE
5AO
   20    21     1     0     0
SMALL
bcc


@<TRIPOS>ATOM
      1 NAA          3.2170     1.6850    -0.1560 nv         1 5AO      -0.828200
      2 CAB          2.0520    -1.7980    -0.0220 ca         1 5AO      -0.088000
      3 CAC          2.9050    -0.7060    -0.0510 ca         1 5AO      -0.189000
      4 CAD          0.6770    -1.6350    -0.0110 ca         1 5AO      -0.155000
      5 CAE         -3.1440     0.9270    -0.0160 cc         1 5AO       0.475300
      6 CAF         -2.3540    -1.0250     0.0250 cd         1 5AO       0.234900
      7 CAG          0.9950     0.7590    -0.0550 ca         1 5AO      -0.174000
      8 NAH         -3.5240    -0.3000     0.0210 nd         1 5AO      -0.675000
      9 OAI         -1.8170     1.0820    -0.0370 os         1 5AO      -0.348800
     10 CAJ          2.3840     0.5940    -0.0700 ca         1 5AO       0.155600
     11 CAK          0.1440    -0.3430    -0.0260 ca         1 5AO      -0.080500
     12 CAL         -1.2990    -0.1720    -0.0110 cc         1 5AO       0.205900
     13 HNAA         4.1650     1.5430     0.1510 hn         1 5AO       0.396300
     14 HNAB         2.8410     2.5590     0.1740 hn         1 5AO       0.396300
     15 HAC          3.9780    -0.8540    -0.0590 ha         1 5AO       0.132000
     16 HAD          0.0290    -2.5000     0.0110 ha         1 5AO       0.136000
     17 HAE         -3.7520     1.8180    -0.0320 h5         1 5AO       0.082100
     18 HAF         -2.3510    -2.1030     0.0540 h4         1 5AO       0.049100
     19 HAG          0.5920     1.7650    -0.0680 ha         1 5AO       0.142000
     20 HAB          2.4710    -2.7960    -0.0080 ha         1 5AO       0.132000
@<TRIPOS>BOND
     1     1    10 1   
     2     1    13 1   
     3     1    14 1   
     4     2     3 ar  
     5     2     4 ar  
     6     2    20 1   
     7     3    10 ar  
     8     3    15 1   
     9     4    11 ar  
    10     4    16 1   
    11     5     8 2   
    12     5     9 1   
    13     5    17 1   
    14     6     8 1   
    15     6    12 2   
    16     6    18 1   
    17     7    10 ar  
    18     7    11 ar  
    19     7    19 1   
    20     9    12 1   
    21    11    12 1   
@<TRIPOS>SUBSTRUCTURE
     1 5AO         1 TEMP              0 ****  ****    0 ROOT
