@<TRIPOS>MOLECULE
5AO
   20    21     1     0     0
SMALL
No Charge or Current Charge


@<TRIPOS>ATOM
      1 NAA          3.2540     1.6530    -0.0620 nv         1 5AO      -1.077000
      2 CAB          2.0440    -1.8210    -0.0150 ca         1 5AO      -0.070000
      3 CAC          2.9160    -0.7200    -0.0340 ca         1 5AO      -0.171000
      4 CAD          0.6540    -1.6160    -0.0080 ca         1 5AO      -0.137000
      5 CAE         -3.2180     0.9120    -0.0100 cc         1 5AO       0.430900
      6 CAF         -2.3130    -1.0300     0.0040 cd         1 5AO       0.234900
      7 CAG          1.0130     0.7860    -0.0380 ca         1 5AO      -0.156000
      8 NAH         -3.5360    -0.3820     0.0050 nd         1 5AO      -0.675000
      9 OAI         -1.8760     1.1680    -0.0210 os         1 5AO      -0.260000
     10 CAJ          2.4010     0.5820    -0.0450 ca         1 5AO       0.294000
     11 CAK          0.1200    -0.3090    -0.0190 ca         1 5AO      -0.080500
     12 CAL         -1.3310    -0.0730    -0.0120 cc         1 5AO       0.161500
     13 HNAA         4.2520     1.5080     0.0780 hn         1 5AO       0.451500
     14 HNAB         2.8910     2.5950     0.0770 hn         1 5AO       0.451500
     15 HAC          3.9910    -0.8850    -0.0400 ha         1 5AO       0.114000
     16 HAD          0.0010    -2.4860     0.0060 ha         1 5AO       0.118000
     17 HAE         -3.9010     1.7550    -0.0140 h5         1 5AO       0.082100
     18 HAF         -2.2250    -2.1090     0.0140 h4         1 5AO       0.049100
     19 HAG          0.6260     1.8020    -0.0470 ha         1 5AO       0.124000
     20 HAB          2.4450    -2.8320    -0.0070 ha         1 5AO       0.114000
@<TRIPOS>BOND
     1     1    10 1   
     2     1    13 1   
     3     1    14 1   
     4     2     3 ar  
     5     2     4 ar  
     6     2    20 1   
     7     3    10 ar  
     8     3    15 1   
     9     4    11 ar  
    10     4    16 1   
    11     5     8 2   
    12     5     9 1   
    13     5    17 1   
    14     6     8 1   
    15     6    12 2   
    16     6    18 1   
    17     7    10 ar  
    18     7    11 ar  
    19     7    19 1   
    20     9    12 1   
    21    11    12 1   
@<TRIPOS>SUBSTRUCTURE
     1 5AO         1 TEMP              0 ****  ****    0 ROOT
