@<TRIPOS>MOLECULE
5AP
   45    47     1     0     0
SMALL
abcg2


@<TRIPOS>ATOM
      1 CL2          1.3470    -1.9780    -1.6400 cl         1 5AP      -0.179000
      2 C17          0.9620    -0.6150    -2.6310 ca         1 5AP       0.157000
      3 C16          1.7590    -0.3780    -3.7400 ca         1 5AP      -0.111000
      4 C14          1.4470     0.6880    -4.5670 ca         1 5AP       0.133000
      5 CL1          2.4390     0.9970    -5.9490 cl         1 5AP      -0.195000
      6 C13          0.3540     1.5000    -4.3120 ca         1 5AP      -0.112000
      7 C12         -0.4280     1.2370    -3.2010 ca         1 5AP      -0.068000
      8 C11         -0.1390     0.1850    -2.3360 cp         1 5AP      -0.145500
      9 C10         -0.9650    -0.0260    -1.1210 cp         1 5AP       0.221500
     10 C19         -2.3190    -0.2870    -1.2000 ca         1 5AP      -0.240300
     11 C20         -3.0780    -0.3980    -2.4900 c3         1 5AP       0.212100
     12 N21         -3.7340     0.8630    -2.8200 n8         1 5AP      -0.997200
     13 C22         -2.9750    -0.4110     0.0500 ca         1 5AP       0.385900
     14 N23         -4.3030    -0.6190     0.1350 nv         1 5AP      -1.073900
     15 N9          -0.3050     0.0820     0.0350 nb         1 5AP      -0.198000
     16 C2          -1.0090    -0.0660     1.1420 cp         1 5AP       0.240500
     17 N1          -2.3120    -0.3010     1.1990 nb         1 5AP      -0.259000
     18 C3          -0.2780     0.0410     2.4280 cp         1 5AP      -0.084500
     19 C4           1.1120     0.0320     2.4270 ca         1 5AP      -0.138000
     20 C5           1.8000     0.1280     3.6320 ca         1 5AP       0.159600
     21 O25          3.1430     0.0980     3.5490 os         1 5AP      -0.340600
     22 C28          3.9050     0.2310     4.7320 c3         1 5AP       0.150400
     23 C6           1.1090     0.2450     4.8380 ca         1 5AP      -0.270000
     24 C7          -0.2860     0.2580     4.8220 ca         1 5AP       0.159600
     25 C8          -0.9820     0.1480     3.6220 ca         1 5AP      -0.138000
     26 O26         -1.0370     0.3770     5.9330 os         1 5AP      -0.340600
     27 C29         -0.3930     0.5370     7.1800 c3         1 5AP       0.150400
     28 H16          2.6040    -1.0180    -3.9540 ha         1 5AP       0.144000
     29 H13          0.1130     2.3260    -4.9660 ha         1 5AP       0.135000
     30 H12         -1.2950     1.8550    -3.0050 ha         1 5AP       0.148000
     31 H201        -3.7670    -1.2530    -2.4320 h1         1 5AP       0.035700
     32 H202        -2.3850    -0.6410    -3.2960 h1         1 5AP       0.035700
     33 H211        -4.2340     0.7540    -3.6940 hn         1 5AP       0.396000
     34 H212        -4.4390     1.0770    -2.1260 hn         1 5AP       0.396000
     35 H231        -4.6870    -0.8480     1.0370 hn         1 5AP       0.487500
     36 H232        -4.8290    -0.9400    -0.6590 hn         1 5AP       0.487500
     37 H4           1.6580    -0.0600     1.4980 ha         1 5AP       0.150500
     38 H281         4.9490     0.1940     4.4310 h1         1 5AP       0.039033
     39 H282         3.7170     1.1830     5.2350 h1         1 5AP       0.039033
     40 H283         3.7150    -0.5830     5.4370 h1         1 5AP       0.039033
     41 H6           1.6490     0.3240     5.7710 ha         1 5AP       0.119000
     42 H8          -2.0630     0.1540     3.6250 ha         1 5AP       0.150500
     43 H291        -1.1800     0.6460     7.9220 h1         1 5AP       0.039033
     44 H292         0.2170    -0.3310     7.4420 h1         1 5AP       0.039033
     45 H293         0.2360     1.4310     7.2030 h1         1 5AP       0.039033
@<TRIPOS>BOND
     1     1     2 1   
     2     2     3 ar  
     3     2     8 ar  
     4     3     4 ar  
     5     3    28 1   
     6     4     5 1   
     7     4     6 ar  
     8     6     7 ar  
     9     6    29 1   
    10     7     8 ar  
    11     7    30 1   
    12     8     9 1   
    13     9    10 ar  
    14     9    15 ar  
    15    10    11 1   
    16    10    13 ar  
    17    11    12 1   
    18    11    31 1   
    19    11    32 1   
    20    12    33 1   
    21    12    34 1   
    22    13    14 1   
    23    13    17 ar  
    24    14    35 1   
    25    14    36 1   
    26    15    16 ar  
    27    16    17 ar  
    28    16    18 1   
    29    18    19 ar  
    30    18    25 ar  
    31    19    20 ar  
    32    19    37 1   
    33    20    21 1   
    34    20    23 ar  
    35    21    22 1   
    36    22    38 1   
    37    22    39 1   
    38    22    40 1   
    39    23    24 ar  
    40    23    41 1   
    41    24    25 ar  
    42    24    26 1   
    43    25    42 1   
    44    26    27 1   
    45    27    43 1   
    46    27    44 1   
    47    27    45 1   
@<TRIPOS>SUBSTRUCTURE
     1 5AP         1 TEMP              0 ****  ****    0 ROOT
