@<TRIPOS>MOLECULE
5AP
   45    47     1     0     0
SMALL
No Charge or Current Charge


@<TRIPOS>ATOM
      1 Cl2          1.1440    -2.2270    -1.7000 cl         1 5AP      -0.179000
      2 C17          0.8780    -0.8130    -2.7200 ca         1 5AP       0.157000
      3 C16          1.6710    -0.6740    -3.8710 ca         1 5AP      -0.111000
      4 C14          1.4810     0.4180    -4.7300 ca         1 5AP       0.133000
      5 Cl1          2.4780     0.5860    -6.1690 cl         1 5AP      -0.195000
      6 C13          0.4960     1.3750    -4.4450 ca         1 5AP      -0.112000
      7 C12         -0.3010     1.2390    -3.2960 ca         1 5AP      -0.068000
      8 C11         -0.1250     0.1450    -2.4120 cp         1 5AP      -0.145500
      9 C10         -0.9750     0.0280    -1.1900 cp         1 5AP       0.221500
     10 C19         -2.3810    -0.1680    -1.2330 ca         1 5AP      -0.240300
     11 C20         -3.1370    -0.3050    -2.5460 c3         1 5AP       0.212100
     12 N21         -3.7410     0.9770    -2.9350 n8         1 5AP      -0.997200
     13 C22         -3.0300    -0.2680     0.0110 ca         1 5AP       0.385900
     14 N23         -4.3690    -0.4780     0.1450 nv         1 5AP      -1.073900
     15 N9          -0.3250     0.1270    -0.0130 nb         1 5AP      -0.198000
     16 C2          -1.0400     0.0220     1.1250 cp         1 5AP       0.240500
     17 N1          -2.3730    -0.1730     1.1710 nb         1 5AP      -0.259000
     18 C3          -0.2930     0.1120     2.4350 cp         1 5AP      -0.084500
     19 C4           1.1190     0.2770     2.4780 ca         1 5AP      -0.138000
     20 C5           1.8190     0.3610     3.6910 ca         1 5AP       0.159600
     21 O25          3.1890     0.5190     3.6290 os         1 5AP      -0.340600
     22 C28          4.0080     0.6160     4.8080 c3         1 5AP       0.150400
     23 C6           1.1220     0.2820     4.9120 ca         1 5AP      -0.270000
     24 C7          -0.2770     0.1190     4.9050 ca         1 5AP       0.159600
     25 C8          -0.9660     0.0360     3.6850 ca         1 5AP      -0.138000
     26 O26         -1.0190     0.0350     6.0650 os         1 5AP      -0.340600
     27 C29         -0.4190     0.1070     7.3710 c3         1 5AP       0.150400
     28 H16          2.4310    -1.4150    -4.0980 ha         1 5AP       0.144000
     29 H13          0.3500     2.2200    -5.1140 ha         1 5AP       0.135000
     30 H12         -1.0600     1.9890    -3.0820 ha         1 5AP       0.148000
     31 H201        -3.9290    -1.0600    -2.4530 h1         1 5AP       0.035700
     32 H202        -2.4620    -0.6370    -3.3470 h1         1 5AP       0.035700
     33 H211        -4.3310     0.8310    -3.7620 hn         1 5AP       0.396000
     34 H212        -4.4040     1.2590    -2.2040 hn         1 5AP       0.396000
     35 H231        -4.7280    -0.7180     1.0660 hn         1 5AP       0.487500
     36 H232        -4.9050    -0.8090    -0.6520 hn         1 5AP       0.487500
     37 H4           1.6940     0.3410     1.5570 ha         1 5AP       0.150500
     38 H281         5.0620     0.7380     4.5280 h1         1 5AP       0.039033
     39 H282         3.7160     1.4820     5.4160 h1         1 5AP       0.039033
     40 H283         3.9210    -0.2910     5.4190 h1         1 5AP       0.039033
     41 H6           1.6580     0.3460     5.8510 ha         1 5AP       0.119000
     42 H8          -2.0450    -0.0890     3.7210 ha         1 5AP       0.150500
     43 H291        -1.1890     0.0190     8.1480 h1         1 5AP       0.039033
     44 H292         0.3030    -0.7070     7.5140 h1         1 5AP       0.039033
     45 H293         0.0970     1.0650     7.5110 h1         1 5AP       0.039033
@<TRIPOS>BOND
     1     1     2 1   
     2     2     3 ar  
     3     2     8 ar  
     4     3     4 ar  
     5     3    28 1   
     6     4     5 1   
     7     4     6 ar  
     8     6     7 ar  
     9     6    29 1   
    10     7     8 ar  
    11     7    30 1   
    12     8     9 1   
    13     9    10 ar  
    14     9    15 ar  
    15    10    11 1   
    16    10    13 ar  
    17    11    12 1   
    18    11    31 1   
    19    11    32 1   
    20    12    33 1   
    21    12    34 1   
    22    13    14 1   
    23    13    17 ar  
    24    14    35 1   
    25    14    36 1   
    26    15    16 ar  
    27    16    17 ar  
    28    16    18 1   
    29    18    19 ar  
    30    18    25 ar  
    31    19    20 ar  
    32    19    37 1   
    33    20    21 1   
    34    20    23 ar  
    35    21    22 1   
    36    22    38 1   
    37    22    39 1   
    38    22    40 1   
    39    23    24 ar  
    40    23    41 1   
    41    24    25 ar  
    42    24    26 1   
    43    25    42 1   
    44    26    27 1   
    45    27    43 1   
    46    27    44 1   
    47    27    45 1   
@<TRIPOS>SUBSTRUCTURE
     1 5AP         1 TEMP              0 ****  ****    0 ROOT
