@<TRIPOS>MOLECULE
5AQ
   56    59     1     0     0
SMALL
No Charge or Current Charge


@<TRIPOS>ATOM
      1 C2           5.6180     2.8600    -0.4040 ca         1 5AQ       0.182900
      2 C4           3.9070     1.3550    -0.1950 ca         1 5AQ       0.152500
      3 C5           2.9980     2.3920    -0.2070 ca         1 5AQ      -0.093600
      4 C6           3.4930     3.7060    -0.3310 ca         1 5AQ       0.447900
      5 N9           3.1720     0.2080    -0.0650 na         1 5AQ      -0.269300
      6 CBA         -7.9480     0.5310    -1.0970 ca         1 5AQ      -0.103000
      7 CBB         -9.2720     0.0610    -1.0510 ca         1 5AQ      -0.107500
      8 CBC         -9.9250    -0.0830     0.1840 ca         1 5AQ      -0.105000
      9 CBD         -9.2530     0.2430     1.3740 ca         1 5AQ      -0.107500
     10 CBE         -7.9290     0.7140     1.3290 ca         1 5AQ      -0.103000
     11 CAZ         -7.2700     0.8620     0.0930 ca         1 5AQ      -0.086300
     12 CAY         -5.8340     1.3660     0.0440 c3         1 5AQ      -0.047100
     13 CAX         -4.8180     0.2120     0.1260 c3         1 5AQ       0.104000
     14 NAW         -3.4350     0.6940     0.0800 ns         1 5AQ      -0.502900
     15 CAV         -2.3290    -0.1230     0.1380 c          1 5AQ       0.608100
     16 OBF         -2.4300    -1.3380     0.2370 o          1 5AQ      -0.593100
     17 CAU         -0.9890     0.6190     0.0720 c3         1 5AQ      -0.065400
     18 C8           1.8390     0.6230     0.0060 cc         1 5AQ       0.407700
     19 N7           1.6750     1.9490    -0.0890 nd         1 5AQ      -0.578100
     20 N6           2.6810     4.7970    -0.3520 nv         1 5AQ      -1.067900
     21 N1           4.8100     3.9480    -0.4270 nb         1 5AQ      -0.300000
     22 N3           5.2350     1.5660    -0.2920 nb         1 5AQ      -0.207000
     23 C1           3.7140    -1.1440     0.1090 c5         1 5AQ       0.315300
     24 O4           3.3850    -1.9660    -1.0330 os         1 5AQ      -0.451000
     25 C9           3.3710    -3.3600    -0.6140 c5         1 5AQ       0.090300
     26 C10          1.9430    -3.9250    -0.8390 c3         1 5AQ       0.155600
     27 O5           1.6070    -3.8580    -2.2330 oh         1 5AQ      -0.704000
     28 C3           3.8290    -3.3690     0.8890 c5         1 5AQ       0.101300
     29 O3           5.2610    -3.4270     1.0350 oh         1 5AQ      -0.690000
     30 C7           3.2930    -1.9870     1.3570 c5         1 5AQ       0.131300
     31 O2           3.9290    -1.5930     2.5800 oh         1 5AQ      -0.671000
     32 H1           6.6880     3.0460    -0.4820 h5         1 5AQ       0.048100
     33 H3          -9.7900    -0.1930    -1.9730 ha         1 5AQ       0.114500
     34 H4         -10.9500    -0.4480     0.2200 ha         1 5AQ       0.114000
     35 H5          -9.7580     0.1310     2.3320 ha         1 5AQ       0.114500
     36 H6          -7.4160     0.9620     2.2550 ha         1 5AQ       0.111500
     37 H7          -5.6630     1.9290    -0.8820 hc         1 5AQ       0.050700
     38 H8          -5.6510     2.0650     0.8690 hc         1 5AQ       0.050700
     39 H9          -4.9700    -0.3420     1.0620 h1         1 5AQ       0.059700
     40 H10         -4.9810    -0.4790    -0.7110 h1         1 5AQ       0.059700
     41 H11         -3.2700     1.6910    -0.0000 hn         1 5AQ       0.316500
     42 H12         -0.9840     1.2310    -0.8370 h1         1 5AQ       0.095200
     43 H13         -0.9280     1.2860     0.9400 h1         1 5AQ       0.095200
     44 H14          3.0930     5.7020    -0.1390 hn         1 5AQ       0.504500
     45 H15          1.7150     4.6550    -0.0670 hn         1 5AQ       0.504500
     46 H16          4.8050    -1.0200     0.1380 h2         1 5AQ       0.125700
     47 H17          4.0700    -3.9320    -1.2410 h1         1 5AQ       0.080700
     48 H18          1.9120    -4.9660    -0.4890 h1         1 5AQ       0.046700
     49 H19          1.2230    -3.3530    -0.2390 h1         1 5AQ       0.046700
     50 H20          1.9100    -2.9670    -2.5320 ho         1 5AQ       0.524000
     51 H21          3.3550    -4.1890     1.4480 h1         1 5AQ       0.052700
     52 H22          5.5530    -4.3290     0.7620 ho         1 5AQ       0.506000
     53 H23          2.2050    -2.0140     1.4850 h1         1 5AQ       0.056700
     54 H24          4.7880    -2.0850     2.5670 ho         1 5AQ       0.511000
     55 SAT          0.4880    -0.5090     0.0580 ss         1 5AQ      -0.146200
     56 H2          -7.4490     0.6380    -2.0580 ha         1 5AQ       0.111500
@<TRIPOS>BOND
     1     1    21 ar  
     2     1    22 ar  
     3     1    32 1   
     4     2     3 ar  
     5     2     5 1   
     6     2    22 ar  
     7     3     4 ar  
     8     3    19 1   
     9     4    20 1   
    10     4    21 ar  
    11     5    18 1   
    12     5    23 1   
    13     6     7 ar  
    14     6    11 ar  
    15     6    56 1   
    16     7     8 ar  
    17     7    33 1   
    18     8     9 ar  
    19     8    34 1   
    20     9    10 ar  
    21     9    35 1   
    22    10    11 ar  
    23    10    36 1   
    24    11    12 1   
    25    12    13 1   
    26    12    37 1   
    27    12    38 1   
    28    13    14 1   
    29    13    39 1   
    30    13    40 1   
    31    14    15 1   
    32    14    41 1   
    33    15    16 2   
    34    15    17 1   
    35    17    42 1   
    36    17    43 1   
    37    17    55 1   
    38    18    19 2   
    39    18    55 1   
    40    20    44 1   
    41    20    45 1   
    42    23    24 1   
    43    23    30 1   
    44    23    46 1   
    45    24    25 1   
    46    25    26 1   
    47    25    28 1   
    48    25    47 1   
    49    26    27 1   
    50    26    48 1   
    51    26    49 1   
    52    27    50 1   
    53    28    29 1   
    54    28    30 1   
    55    28    51 1   
    56    29    52 1   
    57    30    31 1   
    58    30    53 1   
    59    31    54 1   
@<TRIPOS>SUBSTRUCTURE
     1 5AQ         1 TEMP              0 ****  ****    0 ROOT
