@<TRIPOS>MOLECULE
5AQ
   56    59     1     0     0
SMALL
bcc


@<TRIPOS>ATOM
      1 C2           5.7160     2.6370    -0.0680 ca         1 5AQ       0.708900
      2 C4           3.9380     1.3530    -0.1390 ca         1 5AQ       0.480800
      3 C5           3.0830     2.4380    -0.1920 ca         1 5AQ      -0.224200
      4 C6           3.6830     3.7090    -0.1710 ca         1 5AQ       0.776200
      5 N9           3.1270     0.2480    -0.1690 na         1 5AQ      -0.240000
      6 CBA         -7.7050     0.2950    -1.0510 ca         1 5AQ      -0.121000
      7 CBB         -8.9540    -0.3080    -0.9680 ca         1 5AQ      -0.125500
      8 CBC         -9.5310    -0.5460     0.2730 ca         1 5AQ      -0.123000
      9 CBD         -8.8530    -0.1750     1.4270 ca         1 5AQ      -0.125500
     10 CBE         -7.6060     0.4280     1.3390 ca         1 5AQ      -0.121000
     11 CAZ         -7.0160     0.6710     0.1000 ca         1 5AQ      -0.086300
     12 CAY         -5.6450     1.2800     0.0090 c3         1 5AQ      -0.047100
     13 CAX         -4.5730     0.1960     0.0120 c3         1 5AQ       0.104000
     14 NAW         -3.2520     0.7900    -0.0430 ns         1 5AQ      -0.569900
     15 CAV         -2.1450     0.0660    -0.2240 c          1 5AQ       0.675100
     16 OBF         -2.1430    -1.1460    -0.3820 o          1 5AQ      -0.593100
     17 CAU         -0.8540     0.8620    -0.2310 c3         1 5AQ      -0.113300
     18 C8           1.8390     0.7280    -0.2470 cc         1 5AQ       0.407700
     19 N7           1.7760     2.0270    -0.2650 nd         1 5AQ      -0.578100
     20 N6           2.9790     4.8410    -0.2200 nv         1 5AQ      -0.957500
     21 N1           5.0190     3.7680    -0.1060 nb         1 5AQ      -0.826000
     22 N3           5.2640     1.3940    -0.0770 nb         1 5AQ      -0.733000
     23 C1           3.5980    -1.1110    -0.0890 c5         1 5AQ       0.262800
     24 O4           2.9370    -1.8920    -1.0420 os         1 5AQ      -0.404600
     25 C9           2.8190    -3.2440    -0.5660 c5         1 5AQ       0.067100
     26 C10          1.3550    -3.6520    -0.5090 c3         1 5AQ       0.132400
     27 O5           0.6880    -3.4650    -1.7310 oh         1 5AQ      -0.581800
     28 C3           3.4890    -3.2740     0.8130 c5         1 5AQ       0.078100
     29 O3           4.8590    -3.5690     0.7500 oh         1 5AQ      -0.567800
     30 C7           3.3450    -1.8110     1.2440 c5         1 5AQ       0.108100
     31 O2           4.2440    -1.3490     2.1980 oh         1 5AQ      -0.548800
     32 H1           6.7930     2.7530    -0.0210 h5         1 5AQ       0.048100
     33 H3          -9.4760    -0.5880    -1.8740 ha         1 5AQ       0.132500
     34 H4         -10.5040    -1.0160     0.3400 ha         1 5AQ       0.132000
     35 H5          -9.2970    -0.3520     2.3980 ha         1 5AQ       0.132500
     36 H6          -7.0860     0.7160     2.2450 ha         1 5AQ       0.129500
     37 H7          -5.5560     1.8760    -0.9030 hc         1 5AQ       0.050700
     38 H8          -5.4820     1.9580     0.8520 hc         1 5AQ       0.050700
     39 H9          -4.6720    -0.4220     0.9090 h1         1 5AQ       0.059700
     40 H10         -4.7120    -0.4630    -0.8480 h1         1 5AQ       0.059700
     41 H11         -3.1660     1.7820     0.1200 hn         1 5AQ       0.316500
     42 H12         -0.8180     1.5340    -1.0890 h1         1 5AQ       0.095200
     43 H13         -0.7570     1.4650     0.6720 h1         1 5AQ       0.095200
     44 H14          3.4430     5.7310    -0.1670 hn         1 5AQ       0.449300
     45 H15          1.9740     4.8270    -0.2260 hn         1 5AQ       0.449300
     46 H16          4.6770    -1.0580    -0.2750 h2         1 5AQ       0.125700
     47 H17          3.3460    -3.8980    -1.2680 h1         1 5AQ       0.080700
     48 H18          1.3150    -4.7180    -0.2750 h1         1 5AQ       0.046700
     49 H19          0.8480    -3.1290     0.3130 h1         1 5AQ       0.046700
     50 H20          0.5540    -2.5190    -1.8570 ho         1 5AQ       0.425000
     51 H21          2.9610    -3.9540     1.4950 h1         1 5AQ       0.052700
     52 H22          4.9600    -4.4730     0.4370 ho         1 5AQ       0.407000
     53 H23          2.3030    -1.6450     1.5500 h1         1 5AQ       0.056700
     54 H24          3.9780    -1.6800     3.0610 ho         1 5AQ       0.412000
     55 SAT          0.4780    -0.3540    -0.3300 ss         1 5AQ      -0.098300
     56 H2          -7.2630     0.4800    -2.0230 ha         1 5AQ       0.129500
@<TRIPOS>BOND
     1     1    21 ar  
     2     1    22 ar  
     3     1    32 1   
     4     2     3 ar  
     5     2     5 1   
     6     2    22 ar  
     7     3     4 ar  
     8     3    19 1   
     9     4    20 1   
    10     4    21 ar  
    11     5    18 1   
    12     5    23 1   
    13     6     7 ar  
    14     6    11 ar  
    15     6    56 1   
    16     7     8 ar  
    17     7    33 1   
    18     8     9 ar  
    19     8    34 1   
    20     9    10 ar  
    21     9    35 1   
    22    10    11 ar  
    23    10    36 1   
    24    11    12 1   
    25    12    13 1   
    26    12    37 1   
    27    12    38 1   
    28    13    14 1   
    29    13    39 1   
    30    13    40 1   
    31    14    15 1   
    32    14    41 1   
    33    15    16 2   
    34    15    17 1   
    35    17    42 1   
    36    17    43 1   
    37    17    55 1   
    38    18    19 2   
    39    18    55 1   
    40    20    44 1   
    41    20    45 1   
    42    23    24 1   
    43    23    30 1   
    44    23    46 1   
    45    24    25 1   
    46    25    26 1   
    47    25    28 1   
    48    25    47 1   
    49    26    27 1   
    50    26    48 1   
    51    26    49 1   
    52    27    50 1   
    53    28    29 1   
    54    28    30 1   
    55    28    51 1   
    56    29    52 1   
    57    30    31 1   
    58    30    53 1   
    59    31    54 1   
@<TRIPOS>SUBSTRUCTURE
     1 5AQ         1 TEMP              0 ****  ****    0 ROOT
