@<TRIPOS>MOLECULE
5AR
   34    34     1     0     0
SMALL
abcg2


@<TRIPOS>ATOM
      1 O01          4.6040    -2.1910     1.1440 o          1 5AR      -0.725500
      2 C02          4.5930    -1.0100     0.7470 c          1 5AR       0.727000
      3 N18         -7.0910    -1.5740     0.4560 n8         1 5AR      -0.996200
      4 C27          3.7430    -0.6930    -0.5050 c3         1 5AR       0.020500
      5 C28          2.4490    -0.0090    -0.0320 c3         1 5AR      -0.100400
      6 C29          1.5790     0.4840    -1.1930 c3         1 5AR      -0.116700
      7 N35          3.5450    -1.8840    -1.3120 n8         1 5AR      -0.985200
      8 H22         -7.6350    -2.2030    -0.1220 hn         1 5AR       0.388500
      9 H23         -5.3270    -2.1390    -0.4810 h1         1 5AR       0.027700
     10 H24         -6.0340    -0.7040    -1.1970 h1         1 5AR       0.027700
     11 H29          4.2950     0.0340    -1.1130 h1         1 5AR       0.045700
     12 H30          1.8790    -0.7090     0.5890 hc         1 5AR       0.056700
     13 H31          2.7080     0.8430     0.6010 hc         1 5AR       0.056700
     14 H32          2.1390     1.1940    -1.8050 hc         1 5AR       0.063200
     15 H33          1.2940    -0.3490    -1.8410 hc         1 5AR       0.063200
     16 H35          3.1300    -2.6070    -0.7370 hn         1 5AR       0.373500
     17 N1           0.0430     2.4120    -0.7820 nc         1 5AR      -0.383000
     18 N2          -1.1940     2.5410    -0.1960 nc         1 5AR      -0.374000
     19 C4          -1.5560     1.3650     0.1730 cd         1 5AR       0.402300
     20 O1          -0.6210     0.4480    -0.1380 os         1 5AR      -0.285000
     21 C5           0.3510     1.1650    -0.7320 cd         1 5AR       0.447300
     22 C2          -3.6790     0.0460    -0.0590 c3         1 5AR      -0.076400
     23 C3          -4.9780    -0.3420     0.6340 c3         1 5AR      -0.078400
     24 C6          -5.8630    -1.2170    -0.2390 c3         1 5AR       0.148800
     25 H34         -2.5670     0.4100     1.7590 hc         1 5AR       0.069700
     26 H45         -3.3550     1.8390     1.1090 hc         1 5AR       0.069700
     27 H46         -3.9010     0.5730    -0.9910 hc         1 5AR       0.050200
     28 H47         -3.1280    -0.8570    -0.3340 hc         1 5AR       0.050200
     29 H48         -4.7570    -0.8710     1.5660 hc         1 5AR       0.046700
     30 H49         -5.5250     0.5650     0.9150 hc         1 5AR       0.046700
     31 H2          -7.6640    -0.7470     0.5680 hn         1 5AR       0.388500
     32 OXT          5.1620    -0.0380     1.2820 o          1 5AR      -0.725500
     33 H1           2.8980    -1.7030    -2.0690 hn         1 5AR       0.373500
     34 C1          -2.8090     0.9370     0.8320 c3         1 5AR      -0.096700
@<TRIPOS>BOND
     1     1     2 1   
     2     2     4 1   
     3     2    32 1   
     4     3     8 1   
     5     3    24 1   
     6     3    31 1   
     7     4     5 1   
     8     4     7 1   
     9     4    11 1   
    10     5     6 1   
    11     5    12 1   
    12     5    13 1   
    13     6    14 1   
    14     6    15 1   
    15     6    21 1   
    16     7    16 1   
    17     7    33 1   
    18     9    24 1   
    19    10    24 1   
    20    17    18 1   
    21    17    21 2   
    22    18    19 2   
    23    19    20 1   
    24    19    34 1   
    25    20    21 1   
    26    22    23 1   
    27    22    27 1   
    28    22    28 1   
    29    22    34 1   
    30    23    24 1   
    31    23    29 1   
    32    23    30 1   
    33    25    34 1   
    34    26    34 1   
@<TRIPOS>SUBSTRUCTURE
     1 5AR         1 TEMP              0 ****  ****    0 ROOT
