@<TRIPOS>MOLECULE
5AR
   34    34     1     0     0
SMALL
No Charge or Current Charge


@<TRIPOS>ATOM
      1 O01          5.0050    -1.1140     1.6130 o          1 5AR      -0.725500
      2 C02          5.1260    -0.4210     0.6090 c          1 5AR       0.727000
      3 N18         -7.4950    -1.3270     0.2930 n8         1 5AR      -0.996200
      4 C27          4.0280    -0.5390    -0.5320 c3         1 5AR       0.020500
      5 C28          2.6540    -0.0170    -0.0320 c3         1 5AR      -0.100400
      6 C29          1.6040     0.2170    -1.1500 c3         1 5AR      -0.116700
      7 N35          3.8670    -1.8970    -1.1680 n8         1 5AR      -0.985200
      8 H22         -8.1830    -1.6190    -0.4130 hn         1 5AR       0.388500
      9 H23         -5.8420    -1.8100    -0.9120 h1         1 5AR       0.027700
     10 H24         -6.4810    -0.1600    -1.1320 h1         1 5AR       0.027700
     11 H29          4.3540     0.1430    -1.3300 h1         1 5AR       0.045700
     12 H30          2.2450    -0.7090     0.7160 hc         1 5AR       0.056700
     13 H31          2.8180     0.9360     0.4880 hc         1 5AR       0.056700
     14 H32          2.0320     0.8750    -1.9160 hc         1 5AR       0.063200
     15 H33          1.3740    -0.7310    -1.6500 hc         1 5AR       0.063200
     16 H35          3.6210    -2.5770    -0.4380 hn         1 5AR       0.373500
     17 N1           0.0180     2.1060    -0.6780 nc         1 5AR      -0.383000
     18 N2          -1.2240     2.2030    -0.0910 nc         1 5AR      -0.374000
     19 C4          -1.5410     0.9630     0.2540 cd         1 5AR       0.402300
     20 O1          -0.6130     0.0290    -0.0560 os         1 5AR      -0.285000
     21 C5           0.3240     0.8170    -0.6320 cd         1 5AR       0.447300
     22 C2          -3.8800     0.0210    -0.0700 c3         1 5AR      -0.076400
     23 C3          -5.2020    -0.3970     0.6120 c3         1 5AR      -0.078400
     24 C6          -6.2470    -0.9340    -0.3870 c3         1 5AR       0.148800
     25 H34         -2.6140    -0.2080     1.6790 hc         1 5AR       0.069700
     26 H45         -3.2440     1.4180     1.4660 hc         1 5AR       0.069700
     27 H46         -4.0900     0.7930    -0.8220 hc         1 5AR       0.050200
     28 H47         -3.4610    -0.8410    -0.6050 hc         1 5AR       0.050200
     29 H48         -4.9910    -1.1700     1.3620 hc         1 5AR       0.046700
     30 H49         -5.6200     0.4650     1.1460 hc         1 5AR       0.046700
     31 H2          -7.9210    -0.4940     0.7150 hn         1 5AR       0.388500
     32 OXT          6.0850     0.3160     0.4190 o          1 5AR      -0.725500
     33 H1           3.0490    -1.8870    -1.7870 hn         1 5AR       0.373500
     34 C1          -2.8260     0.5600     0.9260 c3         1 5AR      -0.096700
@<TRIPOS>BOND
     1     1     2 1   
     2     2     4 1   
     3     2    32 1   
     4     3     8 1   
     5     3    24 1   
     6     3    31 1   
     7     4     5 1   
     8     4     7 1   
     9     4    11 1   
    10     5     6 1   
    11     5    12 1   
    12     5    13 1   
    13     6    14 1   
    14     6    15 1   
    15     6    21 1   
    16     7    16 1   
    17     7    33 1   
    18     9    24 1   
    19    10    24 1   
    20    17    18 1   
    21    17    21 2   
    22    18    19 2   
    23    19    20 1   
    24    19    34 1   
    25    20    21 1   
    26    22    23 1   
    27    22    27 1   
    28    22    28 1   
    29    22    34 1   
    30    23    24 1   
    31    23    29 1   
    32    23    30 1   
    33    25    34 1   
    34    26    34 1   
@<TRIPOS>SUBSTRUCTURE
     1 5AR         1 TEMP              0 ****  ****    0 ROOT
