@<TRIPOS>MOLECULE
5AS
   43    45     1     0     0
SMALL
No Charge or Current Charge


@<TRIPOS>ATOM
      1 S            1.1910     0.0830    -3.5720 s6         1 5AS       1.425800
      2 N1S          2.4100    -0.4180    -2.5730 n7         1 5AS      -0.942300
      3 O2S          1.1670     1.5420    -3.4660 o          1 5AS      -0.546500
      4 O3S          1.4070    -0.5940    -4.8520 o          1 5AS      -0.546500
      5 O5          -0.1410    -0.5500    -2.8560 os         1 5AS      -0.568700
      6 C5          -1.0740     0.3710    -2.2640 c3         1 5AS       0.189600
      7 C4          -2.1140    -0.4580    -1.4560 c5         1 5AS       0.155300
      8 O4          -1.5470    -0.8780    -0.1890 os         1 5AS      -0.435000
      9 C3          -3.3850     0.3370    -1.0260 c5         1 5AS       0.112300
     10 O3          -4.4530    -0.5020    -0.5730 oh         1 5AS      -0.696000
     11 C2          -2.8200     1.1590     0.1690 c5         1 5AS       0.088300
     12 O2          -3.8860     1.5520     1.0590 oh         1 5AS      -0.693000
     13 C1          -1.7830     0.1480     0.8080 c5         1 5AS       0.310300
     14 N9          -0.4940     0.6660     1.2830 na         1 5AS      -0.294300
     15 C8           0.0350     1.9470     1.0690 cc         1 5AS       0.385700
     16 N7           1.2280     2.0960     1.6700 nd         1 5AS      -0.545100
     17 C7           1.4370     0.8580     2.2830 ca         1 5AS      -0.110600
     18 C6           2.5220     0.4170     3.0670 ca         1 5AS       0.454900
     19 N6           3.5900     1.2080     3.3490 nv         1 5AS      -1.062900
     20 N1           2.5540    -0.8260     3.5710 nb         1 5AS      -0.300000
     21 C12          1.4870    -1.6120     3.2860 ca         1 5AS       0.189900
     22 N3           0.4030    -1.2700     2.5480 nb         1 5AS      -0.213000
     23 C9           0.4050    -0.0160     2.0540 ca         1 5AS       0.147500
     24 C10          2.1130    -0.6350    -1.1500 c3         1 5AS       0.225800
     25 C11          3.4070    -0.9980    -0.4070 c3         1 5AS      -0.099100
     26 H1S          3.0140     0.3940    -2.6720 hn         1 5AS       0.493000
     27 H5'1        -0.5700     1.0800    -1.5940 h1         1 5AS       0.047200
     28 H5'2        -1.5930     0.9430    -3.0440 h1         1 5AS       0.047200
     29 H4          -2.3840    -1.3400    -2.0520 h1         1 5AS       0.123700
     30 H3          -3.7380     0.9970    -1.8320 h1         1 5AS       0.058700
     31 HO'3        -4.7930    -0.0160     0.2220 ho         1 5AS       0.525000
     32 H2          -2.3180     2.0510    -0.2270 h1         1 5AS       0.044700
     33 HO'2        -3.5570     2.2970     1.6190 ho         1 5AS       0.519000
     34 H1          -2.2450    -0.3250     1.6850 h2         1 5AS       0.131700
     35 H8          -0.4710     2.7070     0.4870 h5         1 5AS       0.056800
     36 H61          4.4490     0.7610     3.6570 hn         1 5AS       0.509000
     37 H62          3.6860     2.0650     2.8100 hn         1 5AS       0.509000
     38 H7           1.5020    -2.6220     3.6910 h5         1 5AS       0.051100
     39 H101         1.3950    -1.4570    -1.0180 h1         1 5AS       0.058200
     40 H102         1.6790     0.2650    -0.6920 h1         1 5AS       0.058200
     41 H111         3.1910    -1.2100     0.6460 hc         1 5AS       0.044700
     42 H112         3.8680    -1.8910    -0.8470 hc         1 5AS       0.044700
     43 H113         4.1270    -0.1730    -0.4510 hc         1 5AS       0.044700
@<TRIPOS>BOND
     1     1     2 1   
     2     1     3 2   
     3     1     4 2   
     4     1     5 1   
     5     2    24 1   
     6     2    26 1   
     7     5     6 1   
     8     6     7 1   
     9     6    27 1   
    10     6    28 1   
    11     7     8 1   
    12     7     9 1   
    13     7    29 1   
    14     8    13 1   
    15     9    10 1   
    16     9    11 1   
    17     9    30 1   
    18    10    31 1   
    19    11    12 1   
    20    11    13 1   
    21    11    32 1   
    22    12    33 1   
    23    13    14 1   
    24    13    34 1   
    25    14    15 1   
    26    14    23 1   
    27    15    16 2   
    28    15    35 1   
    29    16    17 1   
    30    17    18 ar  
    31    17    23 ar  
    32    18    19 1   
    33    18    20 ar  
    34    19    36 1   
    35    19    37 1   
    36    20    21 ar  
    37    21    22 ar  
    38    21    38 1   
    39    22    23 ar  
    40    24    25 1   
    41    24    39 1   
    42    24    40 1   
    43    25    41 1   
    44    25    42 1   
    45    25    43 1   
@<TRIPOS>SUBSTRUCTURE
     1 5AS         1 TEMP              0 ****  ****    0 ROOT
