@<TRIPOS>MOLECULE
5AS
   43    45     1     0     0
SMALL
abcg2


@<TRIPOS>ATOM
      1 S            1.0550    -0.0390    -3.5050 s6         1 5AS       1.425800
      2 N1S          1.9260     0.2700    -2.1770 n7         1 5AS      -0.942300
      3 O2S          0.8850     1.2100    -4.2120 o          1 5AS      -0.546500
      4 O3S          1.6010    -1.2020    -4.1600 o          1 5AS      -0.546500
      5 O5          -0.3840    -0.5600    -3.0170 os         1 5AS      -0.568700
      6 C5          -1.3460     0.3830    -2.5240 c3         1 5AS       0.189600
      7 C4          -2.1770    -0.3450    -1.4870 c5         1 5AS       0.155300
      8 O4          -1.3680    -0.7150    -0.3760 os         1 5AS      -0.435000
      9 C3          -3.2940     0.5110    -0.9080 c5         1 5AS       0.112300
     10 O3          -4.2850    -0.3480    -0.4150 oh         1 5AS      -0.696000
     11 C2          -2.5640     1.2210     0.2380 c5         1 5AS       0.088300
     12 O2          -3.3850     1.6350     1.2870 oh         1 5AS      -0.693000
     13 C1          -1.6180     0.1200     0.7270 c5         1 5AS       0.310300
     14 N9          -0.3690     0.6070     1.2580 na         1 5AS      -0.294300
     15 C8           0.4110     1.6410     0.8050 cc         1 5AS       0.385700
     16 N7           1.5720     1.7040     1.3810 nd         1 5AS      -0.545100
     17 C7           1.5790     0.6480     2.2560 ca         1 5AS      -0.110600
     18 C6           2.5480     0.1530     3.1490 ca         1 5AS       0.454900
     19 N6           3.7430     0.7200     3.3040 nv         1 5AS      -1.062900
     20 N1           2.2380    -0.9350     3.8630 nb         1 5AS      -0.300000
     21 C12          1.0460    -1.5010     3.7000 ca         1 5AS       0.189900
     22 N3           0.0660    -1.1350     2.8910 nb         1 5AS      -0.213000
     23 C9           0.3870    -0.0510     2.1910 ca         1 5AS       0.147500
     24 C10          2.2290    -0.7680    -1.1910 c3         1 5AS       0.225800
     25 C11          3.5630    -0.4850    -0.5290 c3         1 5AS      -0.099100
     26 H1S          1.8500     1.2190    -1.8300 hn         1 5AS       0.493000
     27 H5'1        -0.8570     1.2630    -2.0950 h1         1 5AS       0.047200
     28 H5'2        -1.9720     0.7190    -3.3520 h1         1 5AS       0.047200
     29 H4          -2.5860    -1.2540    -1.9380 h1         1 5AS       0.123700
     30 H3          -3.6970     1.2250    -1.6380 h1         1 5AS       0.058700
     31 HO'3        -4.8060     0.1380     0.2360 ho         1 5AS       0.525000
     32 H2          -2.0050     2.0640    -0.1830 h1         1 5AS       0.044700
     33 HO'2        -3.7430     2.5040     1.0790 ho         1 5AS       0.519000
     34 H1          -2.0910    -0.4520     1.5300 h2         1 5AS       0.131700
     35 H8           0.0660     2.3410     0.0600 h5         1 5AS       0.056800
     36 H61          4.4160     0.3200     3.9340 hn         1 5AS       0.509000
     37 H62          4.0110     1.5270     2.7700 hn         1 5AS       0.509000
     38 H7           0.8600    -2.3790     4.3090 h5         1 5AS       0.051100
     39 H101         2.2670    -1.7270    -1.7040 h1         1 5AS       0.058200
     40 H102         1.4320    -0.8360    -0.4480 h1         1 5AS       0.058200
     41 H111         3.7600    -1.2380     0.2340 hc         1 5AS       0.044700
     42 H112         4.3740    -0.5090    -1.2550 hc         1 5AS       0.044700
     43 H113         3.5630     0.4890    -0.0390 hc         1 5AS       0.044700
@<TRIPOS>BOND
     1     1     2 1   
     2     1     3 2   
     3     1     4 2   
     4     1     5 1   
     5     2    24 1   
     6     2    26 1   
     7     5     6 1   
     8     6     7 1   
     9     6    27 1   
    10     6    28 1   
    11     7     8 1   
    12     7     9 1   
    13     7    29 1   
    14     8    13 1   
    15     9    10 1   
    16     9    11 1   
    17     9    30 1   
    18    10    31 1   
    19    11    12 1   
    20    11    13 1   
    21    11    32 1   
    22    12    33 1   
    23    13    14 1   
    24    13    34 1   
    25    14    15 1   
    26    14    23 1   
    27    15    16 2   
    28    15    35 1   
    29    16    17 1   
    30    17    18 ar  
    31    17    23 ar  
    32    18    19 1   
    33    18    20 ar  
    34    19    36 1   
    35    19    37 1   
    36    20    21 ar  
    37    21    22 ar  
    38    21    38 1   
    39    22    23 ar  
    40    24    25 1   
    41    24    39 1   
    42    24    40 1   
    43    25    41 1   
    44    25    42 1   
    45    25    43 1   
@<TRIPOS>SUBSTRUCTURE
     1 5AS         1 TEMP              0 ****  ****    0 ROOT
