@<TRIPOS>MOLECULE
5AV
   31    33     1     0     0
SMALL
No Charge or Current Charge


@<TRIPOS>ATOM
      1 C2           1.2130     0.0350    -0.0070 cc         1 5AV       0.414000
      2 C3           3.3050     1.1690     0.0890 cc         1 5AV       0.425500
      3 N4           4.1380     0.0960     0.0520 nc         1 5AV      -0.682000
      4 C7           3.6760     2.4680     0.1610 cd         1 5AV      -0.390600
      5 C9          -1.0670    -1.0880     0.0070 c3         1 5AV       0.315100
      6 C10         -2.4630    -0.5650    -0.1190 cc         1 5AV      -0.284300
      7 C11         -4.6980     0.2850     0.2140 cc         1 5AV       0.460700
      8 C13         -3.1900    -0.3730    -1.2730 cd         1 5AV       0.331300
      9 C15         -5.9950     0.8060     0.7570 c3         1 5AV      -0.135400
     10 C            3.4400    -1.0310    -0.0160 cd         1 5AV       0.524000
     11 N            1.9350     1.2330     0.0650 na         1 5AV       0.059900
     12 S           -3.3910    -0.1300     1.2900 ss         1 5AV      -0.026400
     13 Cl           4.3200    -2.5220    -0.0710 cl         1 5AV      -0.162000
     14 C1           2.0020    -1.1010    -0.0470 cd         1 5AV      -0.345000
     15 N5           1.3740     2.5020     0.1200 nc         1 5AV      -0.611100
     16 C6           2.4810     3.2390     0.1780 cd         1 5AV       0.402500
     17 N8          -0.1620     0.0540    -0.0340 nu         1 5AV      -0.955200
     18 N12         -4.4730     0.1160    -1.0810 nd         1 5AV      -0.653000
     19 C14         -2.7090    -0.6460    -2.6700 c3         1 5AV      -0.127400
     20 H1           4.6890     2.8450     0.2000 ha         1 5AV       0.231000
     21 H2          -0.9580    -1.6340     0.9550 h1         1 5AV       0.063200
     22 H3          -0.8520    -1.7850    -0.8150 h1         1 5AV       0.063200
     23 H4          -6.3530     0.1730     1.5760 hc         1 5AV       0.062700
     24 H5          -5.8680     1.8240     1.1400 hc         1 5AV       0.062700
     25 H6          -6.7690     0.8270    -0.0190 hc         1 5AV       0.062700
     26 H7           1.5360    -2.0750    -0.1030 ha         1 5AV       0.149000
     27 H8           2.3930     4.3180     0.2310 h4         1 5AV       0.046800
     28 H9          -0.5630     0.9900     0.0520 hn         1 5AV       0.532000
     29 H10         -2.5890    -1.7220    -2.8350 hc         1 5AV       0.054700
     30 H11         -3.4120    -0.2670    -3.4210 hc         1 5AV       0.054700
     31 H12         -1.7400    -0.1660    -2.8490 hc         1 5AV       0.054700
@<TRIPOS>BOND
     1     1    11 1   
     2     1    14 2   
     3     1    17 1   
     4     2     3 1   
     5     2     4 2   
     6     2    11 1   
     7     3    10 2   
     8     4    16 1   
     9     4    20 1   
    10     5     6 1   
    11     5    17 1   
    12     5    21 1   
    13     5    22 1   
    14     6     8 2   
    15     6    12 1   
    16     7     9 1   
    17     7    12 1   
    18     7    18 2   
    19     8    18 1   
    20     8    19 1   
    21     9    23 1   
    22     9    24 1   
    23     9    25 1   
    24    10    13 1   
    25    10    14 1   
    26    11    15 1   
    27    14    26 1   
    28    15    16 2   
    29    16    27 1   
    30    17    28 1   
    31    19    29 1   
    32    19    30 1   
    33    19    31 1   
@<TRIPOS>SUBSTRUCTURE
     1 5AV         1 TEMP              0 ****  ****    0 ROOT
