@<TRIPOS>MOLECULE
5AV
   31    33     1     0     0
SMALL
bcc


@<TRIPOS>ATOM
      1 C2           1.2440     0.0710    -0.0290 cc         1 5AV       0.326300
      2 C3           3.3070     1.2450     0.3760 cc         1 5AV       0.425500
      3 N4           3.9940     0.1140     0.6080 nc         1 5AV      -0.682000
      4 C7           3.6610     2.5830     0.3720 cd         1 5AV      -0.340600
      5 C9          -0.9210    -0.9610    -0.5160 c3         1 5AV       0.315100
      6 C10         -2.3470    -0.5460    -0.4190 cc         1 5AV      -0.204700
      7 C11         -4.5370     0.2330     0.3040 cc         1 5AV       0.460700
      8 C13         -3.2970    -0.4670    -1.3920 cd         1 5AV       0.396600
      9 C15         -5.7180     0.7390     1.0540 c3         1 5AV      -0.135400
     10 C            3.3080    -0.9830     0.5090 cd         1 5AV       0.589300
     11 N            1.9620     1.2250     0.0650 na         1 5AV       0.009200
     12 S           -3.0220    -0.0410     1.0890 ss         1 5AV      -0.171300
     13 CL           4.1770    -2.4570     0.7950 cl         1 5AV      -0.162000
     14 C1           1.9510    -1.1010     0.1930 cd         1 5AV      -0.428300
     15 N5           1.4500     2.4440    -0.1310 nc         1 5AV      -0.611100
     16 C6           2.4780     3.2570     0.0540 cd         1 5AV       0.402500
     17 N8          -0.0500     0.1820    -0.3120 nu         1 5AV      -0.761600
     18 N12         -4.5250    -0.0320    -0.9610 nd         1 5AV      -0.653000
     19 C14         -3.1290    -0.8020    -2.8360 c3         1 5AV      -0.127400
     20 H1           4.6330     2.9990     0.5730 ha         1 5AV       0.181000
     21 H2          -0.6970    -1.7140     0.2420 h1         1 5AV       0.063200
     22 H3          -0.7340    -1.4230    -1.4880 h1         1 5AV       0.063200
     23 H4          -5.9600     0.0940     1.8990 hc         1 5AV       0.062700
     24 H5          -5.5340     1.7390     1.4480 hc         1 5AV       0.062700
     25 H6          -6.5790     0.7820     0.3920 hc         1 5AV       0.062700
     26 H7           1.4750    -2.0650     0.1140 ha         1 5AV       0.167000
     27 H8           2.3360     4.3230    -0.0470 h4         1 5AV       0.046800
     28 H9          -0.3900     1.0970    -0.5730 hn         1 5AV       0.476800
     29 H10         -3.7780    -1.6320    -3.1170 hc         1 5AV       0.054700
     30 H11         -3.4040     0.0510    -3.4580 hc         1 5AV       0.054700
     31 H12         -2.1070    -1.0780    -3.0810 hc         1 5AV       0.054700
@<TRIPOS>BOND
     1     1    11 1   
     2     1    14 2   
     3     1    17 1   
     4     2     3 1   
     5     2     4 2   
     6     2    11 1   
     7     3    10 2   
     8     4    16 1   
     9     4    20 1   
    10     5     6 1   
    11     5    17 1   
    12     5    21 1   
    13     5    22 1   
    14     6     8 2   
    15     6    12 1   
    16     7     9 1   
    17     7    12 1   
    18     7    18 2   
    19     8    18 1   
    20     8    19 1   
    21     9    23 1   
    22     9    24 1   
    23     9    25 1   
    24    10    13 1   
    25    10    14 1   
    26    11    15 1   
    27    14    26 1   
    28    15    16 2   
    29    16    27 1   
    30    17    28 1   
    31    19    29 1   
    32    19    30 1   
    33    19    31 1   
@<TRIPOS>SUBSTRUCTURE
     1 5AV         1 TEMP              0 ****  ****    0 ROOT
