@<TRIPOS>MOLECULE
5AW
   77    78     1     0     0
SMALL
No Charge or Current Charge


@<TRIPOS>ATOM
      1 O25         -6.7460    -2.1210    -1.9710 o          1 5AW      -0.545000
      2 C24         -5.9790    -1.2650    -1.5610 c          1 5AW       0.639100
      3 O26         -6.3030     0.0210    -1.2650 os         1 5AW      -0.466100
      4 C27         -7.6700     0.4150    -1.4490 c3         1 5AW       0.262900
      5 C28         -7.7730     1.8590    -1.0550 cc         1 5AW      -0.251300
      6 S32         -8.4110     2.3350     0.4940 ss         1 5AW      -0.009400
      7 C31         -8.1320     3.9910     0.0200 cc         1 5AW       0.413300
      8 N30         -7.6090     4.1800    -1.1870 nd         1 5AW      -0.632000
      9 C29         -7.4000     2.9520    -1.8020 cd         1 5AW       0.289900
     10 N23         -4.6490    -1.4480    -1.3170 ns         1 5AW      -0.501900
     11 C21         -3.9270    -2.7050    -1.5130 c3         1 5AW       0.128700
     12 C22         -3.4420    -2.8180    -2.9720 c3         1 5AW      -0.112100
     13 C20         -2.7670    -2.8440    -0.5000 c3         1 5AW      -0.090400
     14 C19         -3.2210    -2.8270     0.9840 c3         1 5AW      -0.090400
     15 C17         -2.0790    -3.0820     1.9960 c3         1 5AW       0.108700
     16 C18         -2.5880    -3.1350     3.4490 c3         1 5AW      -0.107100
     17 N16         -1.0310    -2.0660     1.8800 ns         1 5AW      -0.500900
     18 C14          0.2160    -2.2690     1.3250 c          1 5AW       0.600100
     19 O15          0.5450    -3.3500     0.8480 o          1 5AW      -0.620100
     20 C13          1.1520    -1.0200     1.3130 c3         1 5AW       0.046700
     21 C33          1.8280    -0.7310     2.6930 c3         1 5AW      -0.086700
     22 C35          0.8250    -0.2760     3.7800 c3         1 5AW      -0.087600
     23 C34          2.7020    -1.9050     3.2010 c3         1 5AW      -0.087600
     24 N12          2.1770    -1.1880     0.2580 ns         1 5AW      -0.507900
     25 C10          2.8880    -0.1720    -0.3300 c          1 5AW       0.657100
     26 O11          2.6870     1.0010    -0.0550 o          1 5AW      -0.633100
     27 N08          3.8580    -0.5720    -1.2700 n          1 5AW      -0.389800
     28 C09          4.1060    -1.9980    -1.5900 c3         1 5AW       0.067300
     29 C07          4.7140     0.4440    -1.9370 c3         1 5AW       0.071700
     30 C06          5.8410     0.9420    -1.0570 cc         1 5AW       0.249300
     31 N05          6.4150     2.1560    -1.3450 nc         1 5AW      -0.642000
     32 C36          6.3750     0.2780     0.0230 cd         1 5AW      -0.257000
     33 S37          7.6670     1.2030     0.7640 ss         1 5AW      -0.052400
     34 C04          7.3790     2.4230    -0.4740 cd         1 5AW       0.452700
     35 C02          8.1830     3.7040    -0.5510 c3         1 5AW      -0.102000
     36 C03          7.9870     4.5810     0.7080 c3         1 5AW      -0.088600
     37 C01          9.6800     3.4280    -0.8240 c3         1 5AW      -0.088600
     38 H1          -7.9750     0.2970    -2.4980 h1         1 5AW       0.065200
     39 H2          -8.3410    -0.1900    -0.8240 h1         1 5AW       0.065200
     40 H3          -8.3910     4.7850     0.7090 h5         1 5AW       0.053100
     41 H4          -6.9740     2.9190    -2.7970 h4         1 5AW       0.044100
     42 H5          -4.1470    -0.6390    -0.9770 hn         1 5AW       0.325500
     43 H6          -4.6280    -3.5320    -1.3300 h1         1 5AW       0.077700
     44 H7          -2.7410    -2.0100    -3.2140 hc         1 5AW       0.045367
     45 H8          -2.9340    -3.7760    -3.1360 hc         1 5AW       0.045367
     46 H9          -4.2880    -2.7600    -3.6670 hc         1 5AW       0.045367
     47 H10         -2.2400    -3.7860    -0.6950 hc         1 5AW       0.054700
     48 H11         -2.0450    -2.0370    -0.6730 hc         1 5AW       0.054700
     49 H12         -3.6910    -1.8620     1.2140 hc         1 5AW       0.048700
     50 H13         -3.9930    -3.5940     1.1240 hc         1 5AW       0.048700
     51 H14         -1.6460    -4.0670     1.7700 h1         1 5AW       0.083700
     52 H15         -3.0410    -2.1800     3.7410 hc         1 5AW       0.042367
     53 H16         -3.3410    -3.9240     3.5660 hc         1 5AW       0.042367
     54 H17         -1.7620    -3.3510     4.1380 hc         1 5AW       0.042367
     55 H18         -1.2230    -1.1400     2.2400 hn         1 5AW       0.312500
     56 H19          0.5260    -0.1600     1.0400 h1         1 5AW       0.081700
     57 H20          2.5050     0.1200     2.5400 hc         1 5AW       0.080700
     58 H21          0.1810    -1.1020     4.1030 hc         1 5AW       0.035367
     59 H22          1.3600     0.0920     4.6630 hc         1 5AW       0.035367
     60 H23          0.1900     0.5390     3.4100 hc         1 5AW       0.035367
     61 H24          3.4700    -2.1730     2.4650 hc         1 5AW       0.035367
     62 H25          3.2140    -1.6290     4.1300 hc         1 5AW       0.035367
     63 H26          2.0920    -2.7940     3.4020 hc         1 5AW       0.035367
     64 H27          2.3870    -2.1280    -0.0490 hn         1 5AW       0.330500
     65 H28          3.2060    -2.4410    -2.0370 h1         1 5AW       0.040033
     66 H29          4.9360    -2.0960    -2.3010 h1         1 5AW       0.040033
     67 H30          4.3670    -2.5450    -0.6750 h1         1 5AW       0.040033
     68 H31          5.1450     0.0240    -2.8540 h1         1 5AW       0.077200
     69 H32          4.0920     1.2970    -2.2360 h1         1 5AW       0.077200
     70 H33          6.0850    -0.6850     0.4230 h4         1 5AW       0.161000
     71 H34          7.8090     4.2870    -1.4020 hc         1 5AW       0.078700
     72 H35          8.5120     5.5380     0.5990 hc         1 5AW       0.041033
     73 H36          6.9230     4.7950     0.8680 hc         1 5AW       0.041033
     74 H37          8.3740     4.0790     1.6030 hc         1 5AW       0.041033
     75 H38         10.1380     2.8770     0.0070 hc         1 5AW       0.041033
     76 H39          9.8010     2.8330    -1.7380 hc         1 5AW       0.041033
     77 H40         10.2300     4.3670    -0.9560 hc         1 5AW       0.041033
@<TRIPOS>BOND
     1     1     2 2   
     2     2     3 1   
     3     2    10 1   
     4     3     4 1   
     5     4     5 1   
     6     4    38 1   
     7     4    39 1   
     8     5     6 1   
     9     5     9 2   
    10     6     7 1   
    11     7     8 2   
    12     7    40 1   
    13     8     9 1   
    14     9    41 1   
    15    10    11 1   
    16    10    42 1   
    17    11    12 1   
    18    11    13 1   
    19    11    43 1   
    20    12    44 1   
    21    12    45 1   
    22    12    46 1   
    23    13    14 1   
    24    13    47 1   
    25    13    48 1   
    26    14    15 1   
    27    14    49 1   
    28    14    50 1   
    29    15    16 1   
    30    15    17 1   
    31    15    51 1   
    32    16    52 1   
    33    16    53 1   
    34    16    54 1   
    35    17    18 1   
    36    17    55 1   
    37    18    19 2   
    38    18    20 1   
    39    20    21 1   
    40    20    24 1   
    41    20    56 1   
    42    21    22 1   
    43    21    23 1   
    44    21    57 1   
    45    22    58 1   
    46    22    59 1   
    47    22    60 1   
    48    23    61 1   
    49    23    62 1   
    50    23    63 1   
    51    24    25 1   
    52    24    64 1   
    53    25    26 2   
    54    25    27 1   
    55    27    28 1   
    56    27    29 1   
    57    28    65 1   
    58    28    66 1   
    59    28    67 1   
    60    29    30 1   
    61    29    68 1   
    62    29    69 1   
    63    30    31 1   
    64    30    32 2   
    65    31    34 2   
    66    32    33 1   
    67    32    70 1   
    68    33    34 1   
    69    34    35 1   
    70    35    36 1   
    71    35    37 1   
    72    35    71 1   
    73    36    72 1   
    74    36    73 1   
    75    36    74 1   
    76    37    75 1   
    77    37    76 1   
    78    37    77 1   
@<TRIPOS>SUBSTRUCTURE
     1 5AW         1 TEMP              0 ****  ****    0 ROOT
