@<TRIPOS>MOLECULE
5AW
   77    78     1     0     0
SMALL
abcg2


@<TRIPOS>ATOM
      1 O25         -6.6480    -2.5420    -0.7980 o          1 5AW      -0.545000
      2 C24         -5.8830    -1.6110    -0.9520 c          1 5AW       0.639100
      3 O26         -6.2860    -0.3360    -1.0800 os         1 5AW      -0.466100
      4 C27         -7.6890    -0.0920    -0.9940 c3         1 5AW       0.262900
      5 C28         -7.8800     1.3790    -0.9320 cc         1 5AW      -0.251300
      6 S32         -7.2160     2.3480     0.3260 ss         1 5AW      -0.009400
      7 C31         -7.9410     3.7320    -0.3860 cc         1 5AW       0.413300
      8 N30         -8.6210     3.5010    -1.4620 nd         1 5AW      -0.632000
      9 C29         -8.5880     2.1740    -1.7770 cd         1 5AW       0.289900
     10 N23         -4.5470    -1.6940    -1.0050 ns         1 5AW      -0.501900
     11 C21         -3.8170    -2.9480    -0.9230 c3         1 5AW       0.128700
     12 C22         -3.5680    -3.5360    -2.3070 c3         1 5AW      -0.112100
     13 C20         -2.5140    -2.7250    -0.1620 c3         1 5AW      -0.090400
     14 C19         -2.7190    -2.2340     1.2650 c3         1 5AW      -0.090400
     15 C17         -1.4210    -2.0950     2.0580 c3         1 5AW       0.108700
     16 C18         -1.6830    -1.6620     3.4940 c3         1 5AW      -0.107100
     17 N16         -0.5250    -1.1570     1.4030 ns         1 5AW      -0.500900
     18 C14          0.7210    -1.4310     0.9970 c          1 5AW       0.600100
     19 O15          1.2470    -2.5330     1.0950 o          1 5AW      -0.620100
     20 C13          1.4820    -0.2480     0.4090 c3         1 5AW       0.046700
     21 C33          2.2640     0.5370     1.4920 c3         1 5AW      -0.086700
     22 C35          1.3430     1.2730     2.4580 c3         1 5AW      -0.087600
     23 C34          3.2710    -0.3240     2.2450 c3         1 5AW      -0.087600
     24 N12          2.3580    -0.7700    -0.6110 ns         1 5AW      -0.507900
     25 C10          2.9020     0.0460    -1.5500 c          1 5AW       0.657100
     26 O11          2.4930     1.1880    -1.7280 o          1 5AW      -0.633100
     27 N08          3.8970    -0.5040    -2.3250 n          1 5AW      -0.389800
     28 C09          4.4300    -1.8190    -2.0360 c3         1 5AW       0.067300
     29 C07          4.8430     0.4210    -2.9180 c3         1 5AW       0.071700
     30 C06          5.9360     0.7720    -1.9500 cc         1 5AW       0.249300
     31 N05          5.5900     1.1350    -0.6750 nc         1 5AW      -0.642000
     32 C36          7.2700     0.7430    -2.1940 cd         1 5AW      -0.257000
     33 S37          8.1320     1.2000    -0.7820 ss         1 5AW      -0.052400
     34 C04          6.6230     1.3880     0.0580 cd         1 5AW       0.452700
     35 C02          6.5690     1.7730     1.5040 c3         1 5AW      -0.102000
     36 C03          7.0720     0.6310     2.3880 c3         1 5AW      -0.088600
     37 C01          7.3320     3.0670     1.7770 c3         1 5AW      -0.088600
     38 H1          -8.2110    -0.4840    -1.8700 h1         1 5AW       0.065200
     39 H2          -8.1070    -0.5760    -0.1090 h1         1 5AW       0.065200
     40 H3          -7.8130     4.7110     0.0540 h5         1 5AW       0.053100
     41 H4          -9.1070     1.8160    -2.6550 h4         1 5AW       0.044100
     42 H5          -4.0210    -0.8560    -1.2030 hn         1 5AW       0.325500
     43 H6          -4.4360    -3.6430    -0.3510 h1         1 5AW       0.077700
     44 H7          -2.9530    -2.8670    -2.9100 hc         1 5AW       0.045367
     45 H8          -3.0510    -4.4940    -2.2300 hc         1 5AW       0.045367
     46 H9          -4.5070    -3.7050    -2.8340 hc         1 5AW       0.045367
     47 H10         -1.9680    -3.6730    -0.1460 hc         1 5AW       0.054700
     48 H11         -1.8860    -2.0230    -0.7210 hc         1 5AW       0.054700
     49 H12         -3.2460    -1.2740     1.2650 hc         1 5AW       0.048700
     50 H13         -3.3670    -2.9350     1.8000 hc         1 5AW       0.048700
     51 H14         -0.9120    -3.0600     2.0660 h1         1 5AW       0.083700
     52 H15         -2.1590    -0.6790     3.5280 hc         1 5AW       0.042367
     53 H16         -2.3450    -2.3710     3.9920 hc         1 5AW       0.042367
     54 H17         -0.7550    -1.6090     4.0640 hc         1 5AW       0.042367
     55 H18         -0.8780    -0.2240     1.2500 hn         1 5AW       0.312500
     56 H19          0.7740     0.4390    -0.0620 h1         1 5AW       0.081700
     57 H20          2.8270     1.2920     0.9340 hc         1 5AW       0.080700
     58 H21          0.7910     0.5880     3.1040 hc         1 5AW       0.035367
     59 H22          1.9250     1.9280     3.1070 hc         1 5AW       0.035367
     60 H23          0.6160     1.8970     1.9330 hc         1 5AW       0.035367
     61 H24          3.9250    -0.8750     1.5680 hc         1 5AW       0.035367
     62 H25          3.9120     0.3090     2.8610 hc         1 5AW       0.035367
     63 H26          2.7840    -1.0410     2.9090 hc         1 5AW       0.035367
     64 H27          2.7840    -1.6560    -0.3930 hn         1 5AW       0.330500
     65 H28          3.6400    -2.5700    -2.0180 h1         1 5AW       0.040033
     66 H29          5.1150    -2.1020    -2.8330 h1         1 5AW       0.040033
     67 H30          4.9840    -1.8640    -1.0920 h1         1 5AW       0.040033
     68 H31          5.2710    -0.0310    -3.8140 h1         1 5AW       0.077200
     69 H32          4.3140     1.3180    -3.2360 h1         1 5AW       0.077200
     70 H33          7.7770     0.4770    -3.1090 h4         1 5AW       0.161000
     71 H34          5.5100     1.9380     1.7180 hc         1 5AW       0.078700
     72 H35          6.9150     0.8710     3.4400 hc         1 5AW       0.041033
     73 H36          6.5450    -0.2990     2.1730 hc         1 5AW       0.041033
     74 H37          8.1390     0.4570     2.2400 hc         1 5AW       0.041033
     75 H38          8.3990     2.9530     1.5760 hc         1 5AW       0.041033
     76 H39          6.9590     3.8880     1.1660 hc         1 5AW       0.041033
     77 H40          7.2250     3.3520     2.8240 hc         1 5AW       0.041033
@<TRIPOS>BOND
     1     1     2 2   
     2     2     3 1   
     3     2    10 1   
     4     3     4 1   
     5     4     5 1   
     6     4    38 1   
     7     4    39 1   
     8     5     6 1   
     9     5     9 2   
    10     6     7 1   
    11     7     8 2   
    12     7    40 1   
    13     8     9 1   
    14     9    41 1   
    15    10    11 1   
    16    10    42 1   
    17    11    12 1   
    18    11    13 1   
    19    11    43 1   
    20    12    44 1   
    21    12    45 1   
    22    12    46 1   
    23    13    14 1   
    24    13    47 1   
    25    13    48 1   
    26    14    15 1   
    27    14    49 1   
    28    14    50 1   
    29    15    16 1   
    30    15    17 1   
    31    15    51 1   
    32    16    52 1   
    33    16    53 1   
    34    16    54 1   
    35    17    18 1   
    36    17    55 1   
    37    18    19 2   
    38    18    20 1   
    39    20    21 1   
    40    20    24 1   
    41    20    56 1   
    42    21    22 1   
    43    21    23 1   
    44    21    57 1   
    45    22    58 1   
    46    22    59 1   
    47    22    60 1   
    48    23    61 1   
    49    23    62 1   
    50    23    63 1   
    51    24    25 1   
    52    24    64 1   
    53    25    26 2   
    54    25    27 1   
    55    27    28 1   
    56    27    29 1   
    57    28    65 1   
    58    28    66 1   
    59    28    67 1   
    60    29    30 1   
    61    29    68 1   
    62    29    69 1   
    63    30    31 1   
    64    30    32 2   
    65    31    34 2   
    66    32    33 1   
    67    32    70 1   
    68    33    34 1   
    69    34    35 1   
    70    35    36 1   
    71    35    37 1   
    72    35    71 1   
    73    36    72 1   
    74    36    73 1   
    75    36    74 1   
    76    37    75 1   
    77    37    76 1   
    78    37    77 1   
@<TRIPOS>SUBSTRUCTURE
     1 5AW         1 TEMP              0 ****  ****    0 ROOT
