@<TRIPOS>MOLECULE
5AX
   29    29     1     0     0
SMALL
abcg2


@<TRIPOS>ATOM
      1 C4           1.3740     0.9390     0.3080 c6         1 5AX       0.099300
      2 C5           2.0230    -0.3370    -0.2420 c6         1 5AX       0.139300
      3 C6           3.4240    -0.5370     0.2920 c3         1 5AX       0.170600
      4 C7          -3.2950    -0.1220     0.2340 c          1 5AX       0.611100
      5 C8          -4.5470    -0.0050    -0.6000 c3         1 5AX      -0.180100
      6 C1          -0.0520    -1.4350    -0.3910 c6         1 5AX       0.143600
      7 C2          -0.8320    -0.2230     0.1170 c6         1 5AX       0.073700
      8 C3          -0.0610     1.0530    -0.1970 c6         1 5AX       0.156300
      9 N2          -2.1490    -0.1990    -0.4690 ns         1 5AX      -0.500900
     10 O3          -0.7370     2.1360     0.3840 oh         1 5AX      -0.643000
     11 O4           2.0550     2.1010    -0.1160 oh         1 5AX      -0.725000
     12 O5           1.2510    -1.4580     0.1320 os         1 5AX      -0.427000
     13 O6           3.9960    -1.6620    -0.3320 oh         1 5AX      -0.704000
     14 O7          -3.3370    -0.1370     1.4560 o          1 5AX      -0.596100
     15 H4           1.3520     0.8750     1.4060 h1         1 5AX       0.058700
     16 H5           2.0680    -0.2580    -1.3420 h1         1 5AX       0.059700
     17 H61          4.0050     0.3700     0.0910 h1         1 5AX       0.025700
     18 H62          3.3780    -0.6560     1.3830 h1         1 5AX       0.025700
     19 H81         -5.3000    -0.7000    -0.2310 hc         1 5AX       0.059700
     20 H82         -4.9520     1.0020    -0.4930 hc         1 5AX       0.059700
     21 H83         -4.3850    -0.1940    -1.6600 hc         1 5AX       0.059700
     22 H11         -0.5470    -2.3520    -0.0730 h1         1 5AX       0.054700
     23 H12         -0.0330    -1.4310    -1.4920 h1         1 5AX       0.054700
     24 H2          -0.9530    -0.3100     1.1980 h1         1 5AX       0.108700
     25 H3          -0.0160     1.1640    -1.2950 h1         1 5AX       0.036700
     26 HN2         -2.2050    -0.1430    -1.4740 hn         1 5AX       0.307500
     27 HO3         -0.2310     2.9340     0.1960 ho         1 5AX       0.455000
     28 HO4          2.7200     2.3330     0.5370 ho         1 5AX       0.511000
     29 HO6          4.9110    -1.7290    -0.0430 ho         1 5AX       0.504000
@<TRIPOS>BOND
     1     1     2 1   
     2     1     8 1   
     3     1    11 1   
     4     1    15 1   
     5     2     3 1   
     6     2    12 1   
     7     2    16 1   
     8     3    13 1   
     9     3    17 1   
    10     3    18 1   
    11     4     5 1   
    12     4     9 1   
    13     4    14 2   
    14     5    19 1   
    15     5    20 1   
    16     5    21 1   
    17     6     7 1   
    18     6    12 1   
    19     6    22 1   
    20     6    23 1   
    21     7     8 1   
    22     7     9 1   
    23     7    24 1   
    24     8    10 1   
    25     8    25 1   
    26     9    26 1   
    27    10    27 1   
    28    11    28 1   
    29    13    29 1   
@<TRIPOS>SUBSTRUCTURE
     1 5AX         1 TEMP              0 ****  ****    0 ROOT
