@<TRIPOS>MOLECULE
5AX
   29    29     1     0     0
SMALL
No Charge or Current Charge


@<TRIPOS>ATOM
      1 C4           1.4500     1.0640     0.2030 c6         1 5AX       0.099300
      2 C5           2.0220    -0.3230    -0.2370 c6         1 5AX       0.139300
      3 C6           3.4640    -0.5910     0.3090 c3         1 5AX       0.170600
      4 C7          -3.3610    -0.5740     0.1320 c          1 5AX       0.611100
      5 C8          -4.6750    -0.2590    -0.5710 c3         1 5AX      -0.180100
      6 C1          -0.2000    -1.3190    -0.2680 c6         1 5AX       0.143600
      7 C2          -0.8900     0.0030     0.1710 c6         1 5AX       0.073700
      8 C3          -0.0130     1.1950    -0.3180 c6         1 5AX       0.156300
      9 N2          -2.2660     0.0960    -0.3610 ns         1 5AX      -0.500900
     10 O3          -0.5620     2.4540     0.0990 oh         1 5AX      -0.643000
     11 O4           2.2430     2.1680    -0.2920 oh         1 5AX      -0.725000
     12 O5           1.1510    -1.3790     0.2450 os         1 5AX      -0.427000
     13 O6           3.9730    -1.8930    -0.0400 oh         1 5AX      -0.704000
     14 O7          -3.2820    -1.3630     1.0610 o          1 5AX      -0.596100
     15 H4           1.4220     1.0860     1.3030 h1         1 5AX       0.058700
     16 H5           2.0590    -0.3700    -1.3360 h1         1 5AX       0.059700
     17 H61          4.1340     0.1840    -0.0860 h1         1 5AX       0.025700
     18 H62          3.4430    -0.4770     1.4020 h1         1 5AX       0.025700
     19 H81         -5.5210    -0.8140    -0.1510 hc         1 5AX       0.059700
     20 H82         -4.8450     0.8230    -0.5400 hc         1 5AX       0.059700
     21 H83         -4.5590    -0.4470    -1.6440 hc         1 5AX       0.059700
     22 H11         -0.7620    -2.1800     0.1190 h1         1 5AX       0.054700
     23 H12         -0.1770    -1.3940    -1.3650 h1         1 5AX       0.054700
     24 H2          -0.9360     0.0240     1.2700 h1         1 5AX       0.108700
     25 H3           0.0180     1.1620    -1.4180 h1         1 5AX       0.036700
     26 HN2         -2.4430     0.7550    -1.1100 hn         1 5AX       0.307500
     27 HO3          0.1790     3.0920    -0.0160 ho         1 5AX       0.455000
     28 HO4          3.0110     2.2840     0.3160 ho         1 5AX       0.511000
     29 HO6          4.8460    -1.9900     0.4070 ho         1 5AX       0.504000
@<TRIPOS>BOND
     1     1     2 1   
     2     1     8 1   
     3     1    11 1   
     4     1    15 1   
     5     2     3 1   
     6     2    12 1   
     7     2    16 1   
     8     3    13 1   
     9     3    17 1   
    10     3    18 1   
    11     4     5 1   
    12     4     9 1   
    13     4    14 2   
    14     5    19 1   
    15     5    20 1   
    16     5    21 1   
    17     6     7 1   
    18     6    12 1   
    19     6    22 1   
    20     6    23 1   
    21     7     8 1   
    22     7     9 1   
    23     7    24 1   
    24     8    10 1   
    25     8    25 1   
    26     9    26 1   
    27    10    27 1   
    28    11    28 1   
    29    13    29 1   
@<TRIPOS>SUBSTRUCTURE
     1 5AX         1 TEMP              0 ****  ****    0 ROOT
