@<TRIPOS>MOLECULE
5AY
   49    53     1     0     0
SMALL
No Charge or Current Charge


@<TRIPOS>ATOM
      1 C2           0.9410    -0.0980    -0.1170 cc         1 5AY      -0.365000
      2 C3           2.1700    -0.6660     0.0890 cd         1 5AY       0.423000
      3 N4           2.1880    -1.9780     0.5980 na         1 5AY       0.045900
      4 C7           5.0230     1.6450    -0.5230 cc         1 5AY      -0.250300
      5 C9          -2.6920    -0.8080     0.1030 c3         1 5AY       0.198600
      6 C10         -3.7580     0.2130    -0.2740 cx         1 5AY      -0.120700
      7 C11         -4.1160     0.4700    -1.7210 cx         1 5AY      -0.105400
      8 C12         -5.1070    -0.2300    -0.8100 cx         1 5AY      -0.177000
      9 C13         -6.4020     0.4090    -0.3690 ca         1 5AY       0.386300
     10 C15         -7.7450     2.3270     0.2870 ca         1 5AY      -0.071000
     11 N19          3.2940    -2.7690     0.8950 nc         1 5AY      -0.618100
     12 C20          2.6880    -3.8810     1.3360 cd         1 5AY       0.404500
     13 C21          1.2640    -3.8030     1.3220 cd         1 5AY      -0.419600
     14 N23          7.0550     2.1780    -1.4220 nd         1 5AY      -0.519800
     15 C            0.9460    -2.5390     0.8320 cd         1 5AY       0.459500
     16 N           -0.3290    -2.0470     0.6570 nd         1 5AY      -0.795000
     17 C1          -0.2390    -0.8210     0.1770 cc         1 5AY       0.663300
     18 N5           3.3530    -0.0280    -0.1750 nu         1 5AY      -0.957200
     19 C6           3.5510     1.3710    -0.5390 c3         1 5AY       0.323100
     20 C8           5.9020     1.6530     0.5210 cd         1 5AY      -0.145000
     21 C14         -6.5120     1.7950    -0.1230 ca         1 5AY      -0.162000
     22 C16         -8.8260     1.4460     0.4360 ca         1 5AY      -0.167000
     23 C17         -8.6360     0.0790     0.1730 ca         1 5AY       0.342900
     24 N18         -7.4490    -0.4360    -0.2230 nb         1 5AY      -0.670000
     25 N22          7.1360     1.9790    -0.0510 na         1 5AY       0.137800
     26 C24          5.7770     1.9690    -1.6620 cc         1 5AY       0.262900
     27 C25          8.4170     2.1150     0.6560 c3         1 5AY       0.070900
     28 H1           0.8370     0.9040    -0.5090 ha         1 5AY       0.147000
     29 H2          -2.8430    -1.1240     1.1440 h1         1 5AY       0.059200
     30 H3          -2.7740    -1.6910    -0.5450 h1         1 5AY       0.059200
     31 H4          -3.7470     1.0750     0.3890 hc         1 5AY       0.088700
     32 H5          -4.3190     1.4960    -2.0180 hc         1 5AY       0.078200
     33 H6          -3.6200    -0.1270    -2.4820 hc         1 5AY       0.078200
     34 H7          -5.2270    -1.2970    -0.9830 hc         1 5AY       0.104700
     35 H8          -7.8580     3.3920     0.4830 ha         1 5AY       0.118000
     36 H9           3.2970    -4.7170     1.6550 h4         1 5AY       0.041800
     37 H10          0.5690    -4.5720     1.6300 ha         1 5AY       0.225000
     38 H11          4.1810    -0.5720     0.0760 hn         1 5AY       0.532000
     39 H12          3.0470     2.0330     0.1800 h1         1 5AY       0.052700
     40 H13          3.1410     1.5710    -1.5390 h1         1 5AY       0.052700
     41 H14          5.7640     1.4640     1.5800 h4         1 5AY       0.157000
     42 H15         -5.6550     2.4500    -0.2470 ha         1 5AY       0.122000
     43 H16         -9.8000     1.8090     0.7510 ha         1 5AY       0.124000
     44 H17         -9.4590    -0.6260     0.2810 h4         1 5AY       0.018100
     45 H18          5.4170     2.0600    -2.6790 h4         1 5AY       0.045100
     46 H19          9.1410     1.4040     0.2420 h1         1 5AY       0.059367
     47 H20          8.7960     3.1360     0.5320 h1         1 5AY       0.059367
     48 H21          8.2750     1.9080     1.7230 h1         1 5AY       0.059367
     49 O           -1.4140    -0.1630    -0.0640 os         1 5AY      -0.460300
@<TRIPOS>BOND
     1     1     2 2   
     2     1    17 1   
     3     1    28 1   
     4     2     3 1   
     5     2    18 1   
     6     3    11 1   
     7     3    15 1   
     8     4    19 1   
     9     4    20 2   
    10     4    26 1   
    11     5     6 1   
    12     5    29 1   
    13     5    30 1   
    14     5    49 1   
    15     6     7 1   
    16     6     8 1   
    17     6    31 1   
    18     7     8 1   
    19     7    32 1   
    20     7    33 1   
    21     8     9 1   
    22     8    34 1   
    23     9    21 ar  
    24     9    24 ar  
    25    10    21 ar  
    26    10    22 ar  
    27    10    35 1   
    28    11    12 2   
    29    12    13 1   
    30    12    36 1   
    31    13    15 2   
    32    13    37 1   
    33    14    25 1   
    34    14    26 2   
    35    15    16 1   
    36    16    17 2   
    37    17    49 1   
    38    18    19 1   
    39    18    38 1   
    40    19    39 1   
    41    19    40 1   
    42    20    25 1   
    43    20    41 1   
    44    21    42 1   
    45    22    23 ar  
    46    22    43 1   
    47    23    24 ar  
    48    23    44 1   
    49    25    27 1   
    50    26    45 1   
    51    27    46 1   
    52    27    47 1   
    53    27    48 1   
@<TRIPOS>SUBSTRUCTURE
     1 5AY         1 TEMP              0 ****  ****    0 ROOT
