@<TRIPOS>MOLECULE
5AY
   49    53     1     0     0
SMALL
abcg2


@<TRIPOS>ATOM
      1 C2           0.9200    -0.0130    -0.0040 cc         1 5AY      -0.365000
      2 C3           2.1090    -0.6860     0.1900 cd         1 5AY       0.423000
      3 N4           2.0020    -2.0070     0.5260 na         1 5AY       0.045900
      4 C7           5.0430     1.4590    -0.3940 cc         1 5AY      -0.250300
      5 C9          -2.6560    -0.6790     0.0840 c3         1 5AY       0.198600
      6 C10         -3.7120     0.3300    -0.2460 cx         1 5AY      -0.120700
      7 C11         -4.0600     0.6050    -1.6670 cx         1 5AY      -0.105400
      8 C12         -5.0200    -0.1690    -0.8020 cx         1 5AY      -0.177000
      9 C13         -6.3090     0.4140    -0.3640 ca         1 5AY       0.386300
     10 C15         -7.6930     2.2450     0.3230 ca         1 5AY      -0.071000
     11 N19          3.0490    -2.8120     0.7590 nc         1 5AY      -0.618100
     12 C20          2.4940    -3.9760     1.0500 cd         1 5AY       0.404500
     13 C21          1.0960    -3.9440     1.0100 cd         1 5AY      -0.419600
     14 N23          7.1110     1.4890    -1.2880 nd         1 5AY      -0.519800
     15 C            0.7860    -2.6380     0.6630 cd         1 5AY       0.459500
     16 N           -0.3760    -1.9940     0.4700 nd         1 5AY      -0.795000
     17 C1          -0.2860    -0.7300     0.1480 cc         1 5AY       0.663300
     18 N5           3.3360    -0.1840     0.0770 nu         1 5AY      -0.957200
     19 C6           3.5860     1.2160    -0.2170 c3         1 5AY       0.323100
     20 C8           5.9150     2.0470     0.4970 cd         1 5AY      -0.145000
     21 C14         -6.4570     1.7730    -0.0780 ca         1 5AY      -0.162000
     22 C16         -8.7530     1.3540     0.4320 ca         1 5AY      -0.167000
     23 C17         -8.5110     0.0260     0.1280 ca         1 5AY       0.342900
     24 N18         -7.3270    -0.4370    -0.2590 nb         1 5AY      -0.670000
     25 N22          7.1270     2.0430    -0.0800 na         1 5AY       0.137800
     26 C24          5.8570     1.1300    -1.4920 cc         1 5AY       0.262900
     27 C25          8.3600     2.5610     0.4640 c3         1 5AY       0.070900
     28 H1           0.9090     1.0340    -0.2650 ha         1 5AY       0.147000
     29 H2          -2.7720    -1.0460     1.1070 h1         1 5AY       0.059200
     30 H3          -2.7170    -1.5390    -0.5890 h1         1 5AY       0.059200
     31 H4          -3.7810     1.1630     0.4470 hc         1 5AY       0.088700
     32 H5          -4.3270     1.6170    -1.9450 hc         1 5AY       0.078200
     33 H6          -3.5400     0.0530    -2.4390 hc         1 5AY       0.078200
     34 H7          -5.0850    -1.2340    -0.9960 hc         1 5AY       0.104700
     35 H8          -7.8290     3.2950     0.5470 ha         1 5AY       0.118000
     36 H9           3.1250    -4.8200     1.2870 h4         1 5AY       0.041800
     37 H10          0.4040    -4.7460     1.2050 ha         1 5AY       0.225000
     38 H11          4.1140    -0.7780     0.3220 hn         1 5AY       0.532000
     39 H12          3.1950     1.8450     0.5880 h1         1 5AY       0.052700
     40 H13          3.0450     1.4910    -1.1260 h1         1 5AY       0.052700
     41 H14          5.7500     2.4620     1.4790 h4         1 5AY       0.157000
     42 H15         -5.6210     2.4550    -0.1680 ha         1 5AY       0.122000
     43 H16         -9.7360     1.6790     0.7410 ha         1 5AY       0.124000
     44 H17         -9.3100    -0.7050     0.1990 h4         1 5AY       0.018100
     45 H18          5.5670     0.6500    -2.4160 h4         1 5AY       0.045100
     46 H19          9.0930     1.7630     0.5720 h1         1 5AY       0.059367
     47 H20          8.7650     3.3330    -0.1860 h1         1 5AY       0.059367
     48 H21          8.1610     2.9920     1.4410 h1         1 5AY       0.059367
     49 O           -1.3950    -0.0260    -0.0640 os         1 5AY      -0.460300
@<TRIPOS>BOND
     1     1     2 2   
     2     1    17 1   
     3     1    28 1   
     4     2     3 1   
     5     2    18 1   
     6     3    11 1   
     7     3    15 1   
     8     4    19 1   
     9     4    20 2   
    10     4    26 1   
    11     5     6 1   
    12     5    29 1   
    13     5    30 1   
    14     5    49 1   
    15     6     7 1   
    16     6     8 1   
    17     6    31 1   
    18     7     8 1   
    19     7    32 1   
    20     7    33 1   
    21     8     9 1   
    22     8    34 1   
    23     9    21 ar  
    24     9    24 ar  
    25    10    21 ar  
    26    10    22 ar  
    27    10    35 1   
    28    11    12 2   
    29    12    13 1   
    30    12    36 1   
    31    13    15 2   
    32    13    37 1   
    33    14    25 1   
    34    14    26 2   
    35    15    16 1   
    36    16    17 2   
    37    17    49 1   
    38    18    19 1   
    39    18    38 1   
    40    19    39 1   
    41    19    40 1   
    42    20    25 1   
    43    20    41 1   
    44    21    42 1   
    45    22    23 ar  
    46    22    43 1   
    47    23    24 ar  
    48    23    44 1   
    49    25    27 1   
    50    26    45 1   
    51    27    46 1   
    52    27    47 1   
    53    27    48 1   
@<TRIPOS>SUBSTRUCTURE
     1 5AY         1 TEMP              0 ****  ****    0 ROOT
