@<TRIPOS>MOLECULE
5AZ
   12    12     1     0     0
SMALL
No Charge or Current Charge


@<TRIPOS>ATOM
      1 C1          11.0810    13.1780     0.6700 c          1 5AZ       0.693400
      2 N2          10.9890    12.4460     1.7700 ns         1 5AZ      -0.578900
      3 C3          10.4310    11.2560     1.7680 cc         1 5AZ       0.749800
      4 N4           9.9170    10.6540     0.7530 nd         1 5AZ      -0.846000
      5 C5          10.0050    11.4000    -0.4280 cd         1 5AZ       0.728200
      6 N6          10.5660    12.6010    -0.4390 nc         1 5AZ      -0.713100
      7 N7          10.3900    10.6180     2.9060 nv         1 5AZ      -1.047200
      8 O8          11.5870    14.2820     0.6700 o          1 5AZ      -0.522000
      9 HN2         11.3240    12.8530     2.6240 hn         1 5AZ       0.444000
     10 H5           9.6010    10.9720    -1.3390 h5         1 5AZ       0.059800
     11 H1N7        10.0770     9.6640     2.7850 hn         1 5AZ       0.516000
     12 H2N7        11.2030    10.7110     3.5020 hn         1 5AZ       0.516000
@<TRIPOS>BOND
     1     1     2 1   
     2     1     6 1   
     3     1     8 2   
     4     2     3 1   
     5     2     9 1   
     6     3     4 2   
     7     3     7 1   
     8     4     5 1   
     9     5     6 2   
    10     5    10 1   
    11     7    11 1   
    12     7    12 1   
@<TRIPOS>SUBSTRUCTURE
     1 5AZ         1 TEMP              0 ****  ****    0 ROOT
