@<TRIPOS>MOLECULE
5AZ
   12    12     1     0     0
SMALL
abcg2


@<TRIPOS>ATOM
      1 C1          11.0640    13.2150     0.5930 c          1 5AZ       0.693400
      2 N2          11.0410    12.4190     1.7460 ns         1 5AZ      -0.578900
      3 C3          10.4970    11.1780     1.7620 cc         1 5AZ       0.749800
      4 N4           9.9550    10.6620     0.6590 nd         1 5AZ      -0.846000
      5 C5           9.9970    11.4570    -0.4170 cd         1 5AZ       0.728200
      6 N6          10.5020    12.6680    -0.5280 nc         1 5AZ      -0.713100
      7 N7          10.5080    10.4770     2.8900 nv         1 5AZ      -1.047200
      8 O8          11.5700    14.3280     0.6440 o          1 5AZ      -0.522000
      9 HN2         11.4520    12.8120     2.5840 hn         1 5AZ       0.444000
     10 H5           9.5550    11.0370    -1.3170 h5         1 5AZ       0.059800
     11 H1N7        10.1070     9.5530     2.8890 hn         1 5AZ       0.516000
     12 H2N7        10.9230    10.8290     3.7370 hn         1 5AZ       0.516000
@<TRIPOS>BOND
     1     1     2 1   
     2     1     6 1   
     3     1     8 2   
     4     2     3 1   
     5     2     9 1   
     6     3     4 2   
     7     3     7 1   
     8     4     5 1   
     9     5     6 2   
    10     5    10 1   
    11     7    11 1   
    12     7    12 1   
@<TRIPOS>SUBSTRUCTURE
     1 5AZ         1 TEMP              0 ****  ****    0 ROOT
