@<TRIPOS>MOLECULE
5B1
   17    18     1     0     0
SMALL
abcg2


@<TRIPOS>ATOM
      1 C7           1.4690     0.3000     0.0460 ca         1 5B1      -0.265900
      2 C6           0.1410     0.7370     0.0710 ca         1 5B1       0.008000
      3 C1           2.7450     0.9450     0.0590 cc         1 5B1       0.558800
      4 N1           2.9770     2.2960     0.1680 nv         1 5B1      -0.963200
      5 C5          -0.8390    -0.2260     0.0410 ca         1 5B1      -0.070900
      6 C4          -0.5380    -1.6020    -0.0100 ca         1 5B1      -0.040000
      7 BR1         -2.6580     0.2960     0.0700 br         1 5B1      -0.102100
      8 C3           0.7650    -2.0420    -0.0290 ca         1 5B1      -0.143000
      9 C2           1.7740    -1.0710    -0.0000 ca         1 5B1      -0.001200
     10 N3           3.1160    -1.1580    -0.0010 na         1 5B1      -0.062400
     11 N2           3.7070     0.0580     0.0230 nd         1 5B1      -0.581100
     12 H6          -0.0980     1.7920     0.1140 ha         1 5B1       0.131000
     13 HN1          2.3010     2.8740    -0.3080 hn         1 5B1       0.450500
     14 HN1A         3.9160     2.5700    -0.0830 hn         1 5B1       0.450500
     15 H4          -1.3380    -2.3290    -0.0320 ha         1 5B1       0.128000
     16 H3           0.9900    -3.0990    -0.0670 ha         1 5B1       0.124000
     17 HN3          3.6860    -1.9850    -0.0510 hn         1 5B1       0.380000
@<TRIPOS>BOND
     1     1     2 ar  
     2     1     3 1   
     3     1     9 ar  
     4     2     5 ar  
     5     2    12 1   
     6     3     4 1   
     7     3    11 2   
     8     4    13 1   
     9     4    14 1   
    10     5     6 ar  
    11     5     7 1   
    12     6     8 ar  
    13     6    15 1   
    14     8     9 ar  
    15     8    16 1   
    16     9    10 1   
    17    10    11 1   
    18    10    17 1   
@<TRIPOS>SUBSTRUCTURE
     1 5B1         1 TEMP              0 ****  ****    0 ROOT
