@<TRIPOS>MOLECULE
5B1
   17    18     1     0     0
SMALL
No Charge or Current Charge


@<TRIPOS>ATOM
      1 C7           1.4870     0.2750     0.0440 ca         1 5B1      -0.265900
      2 C6           0.1680     0.7510     0.0650 ca         1 5B1       0.008000
      3 C1           2.7630     0.9230     0.0650 cc         1 5B1       0.558800
      4 N1           2.9500     2.2490     0.0930 nv         1 5B1      -0.963200
      5 C5          -0.8640    -0.2130     0.0350 ca         1 5B1      -0.070900
      6 C4          -0.5620    -1.5980    -0.0130 ca         1 5B1      -0.040000
      7 Br1         -2.6900     0.3570     0.0600 br         1 5B1      -0.102100
      8 C3           0.7820    -2.0340    -0.0300 ca         1 5B1      -0.143000
      9 C2           1.7800    -1.0530     0.0000 ca         1 5B1      -0.001200
     10 N3           3.1590    -1.1660    -0.0040 na         1 5B1      -0.062400
     11 N2           3.7930     0.0890     0.0370 nd         1 5B1      -0.581100
     12 H6          -0.0540     1.8150     0.1040 ha         1 5B1       0.131000
     13 HN1          2.1720     2.8370    -0.1810 hn         1 5B1       0.450500
     14 HN1A         3.8800     2.5830    -0.1300 hn         1 5B1       0.450500
     15 H4          -1.3670    -2.3280    -0.0350 ha         1 5B1       0.128000
     16 H3           1.0300    -3.0920    -0.0650 ha         1 5B1       0.124000
     17 HN3          3.6880    -2.0380    -0.0320 hn         1 5B1       0.380000
@<TRIPOS>BOND
     1     1     2 ar  
     2     1     3 1   
     3     1     9 ar  
     4     2     5 ar  
     5     2    12 1   
     6     3     4 1   
     7     3    11 2   
     8     4    13 1   
     9     4    14 1   
    10     5     6 ar  
    11     5     7 1   
    12     6     8 ar  
    13     6    15 1   
    14     8     9 ar  
    15     8    16 1   
    16     9    10 1   
    17    10    11 1   
    18    10    17 1   
@<TRIPOS>SUBSTRUCTURE
     1 5B1         1 TEMP              0 ****  ****    0 ROOT
