@<TRIPOS>MOLECULE
5B2
   27    29     1     0     0
SMALL
abcg2


@<TRIPOS>ATOM
      1 C7           1.7780     0.2870     0.0820 ca         1 5B2      -0.261900
      2 C6           0.4250     0.6250     0.1310 ca         1 5B2      -0.012000
      3 C1           3.0090     0.9960     0.2570 cc         1 5B2       0.553800
      4 N1           3.1420     2.3200     0.6080 nv         1 5B2      -0.964200
      5 C5          -0.5220    -0.3590    -0.0940 cp         1 5B2      -0.087000
      6 C4          -0.0930    -1.6830    -0.3630 ca         1 5B2      -0.051000
      7 C3           1.2330    -2.0420    -0.4130 ca         1 5B2      -0.147000
      8 C2           2.1770    -1.0340    -0.1840 ca         1 5B2      -0.006200
      9 N3           3.5230    -1.0360    -0.1490 na         1 5B2      -0.067400
     10 N2           4.0300     0.1920     0.1060 nd         1 5B2      -0.582100
     11 C8          -1.9640    -0.0410    -0.0540 cp         1 5B2      -0.023000
     12 C13         -2.8840    -0.9400     0.4910 ca         1 5B2      -0.105000
     13 C12         -4.2380    -0.6380     0.5330 ca         1 5B2      -0.109000
     14 C11         -4.7010     0.5720     0.0330 ca         1 5B2      -0.110000
     15 C10         -3.7970     1.4750    -0.5110 ca         1 5B2      -0.109000
     16 C9          -2.4450     1.1700    -0.5560 ca         1 5B2      -0.105000
     17 H6           0.1190     1.6380     0.3630 ha         1 5B2       0.119000
     18 HN1          2.4430     2.9260     0.2050 hn         1 5B2       0.447500
     19 HN1A         4.0660     2.6930     0.4510 hn         1 5B2       0.447500
     20 H4          -0.8390    -2.4440    -0.5560 ha         1 5B2       0.115000
     21 H3           1.5290    -3.0600    -0.6290 ha         1 5B2       0.121000
     22 HN3          4.1480    -1.8050    -0.3170 hn         1 5B2       0.377000
     23 H13         -2.5400    -1.8790     0.9070 ha         1 5B2       0.111500
     24 H12         -4.9310    -1.3490     0.9650 ha         1 5B2       0.111500
     25 H11         -5.7570     0.8080     0.0650 ha         1 5B2       0.112000
     26 H10         -4.1460     2.4170    -0.9130 ha         1 5B2       0.111500
     27 H9          -1.7570     1.8760    -1.0060 ha         1 5B2       0.111500
@<TRIPOS>BOND
     1     1     2 ar  
     2     1     3 1   
     3     1     8 ar  
     4     2     5 ar  
     5     2    17 1   
     6     3     4 1   
     7     3    10 2   
     8     4    18 1   
     9     4    19 1   
    10     5     6 ar  
    11     5    11 1   
    12     6     7 ar  
    13     6    20 1   
    14     7     8 ar  
    15     7    21 1   
    16     8     9 1   
    17     9    10 1   
    18     9    22 1   
    19    11    12 ar  
    20    11    16 ar  
    21    12    13 ar  
    22    12    23 1   
    23    13    14 ar  
    24    13    24 1   
    25    14    15 ar  
    26    14    25 1   
    27    15    16 ar  
    28    15    26 1   
    29    16    27 1   
@<TRIPOS>SUBSTRUCTURE
     1 5B2         1 TEMP              0 ****  ****    0 ROOT
