@<TRIPOS>MOLECULE
5B2
   27    29     1     0     0
SMALL
No Charge or Current Charge


@<TRIPOS>ATOM
      1 C7           1.8180     0.2560     0.0720 ca         1 5B2      -0.261900
      2 C6           0.4670     0.6280     0.1220 ca         1 5B2      -0.012000
      3 C1           3.0410     0.9810     0.2410 cc         1 5B2       0.553800
      4 N1           3.1270     2.2960     0.4850 nv         1 5B2      -0.964200
      5 C5          -0.5200    -0.3780    -0.0910 cp         1 5B2      -0.087000
      6 C4          -0.0820    -1.7170    -0.3450 ca         1 5B2      -0.051000
      7 C3           1.2910    -2.0490    -0.3860 ca         1 5B2      -0.147000
      8 C2           2.2110    -1.0210    -0.1690 ca         1 5B2      -0.006200
      9 N3           3.5940    -1.0360    -0.1420 na         1 5B2      -0.067400
     10 N2           4.1320     0.2380     0.1180 nd         1 5B2      -0.582100
     11 C8          -1.9790    -0.0420    -0.0490 cp         1 5B2      -0.023000
     12 C13         -2.9300    -0.9620     0.4630 ca         1 5B2      -0.105000
     13 C12         -4.2990    -0.6450     0.5030 ca         1 5B2      -0.109000
     14 C11         -4.7480     0.5980     0.0310 ca         1 5B2      -0.110000
     15 C10         -3.8260     1.5250    -0.4810 ca         1 5B2      -0.109000
     16 C9          -2.4570     1.2080    -0.5200 ca         1 5B2      -0.105000
     17 H6           0.1850     1.6560     0.3340 ha         1 5B2       0.119000
     18 HN1          2.3120     2.8630     0.2840 hn         1 5B2       0.447500
     19 HN1A         4.0340     2.7280     0.3500 hn         1 5B2       0.447500
     20 H4          -0.8130    -2.5010    -0.5250 ha         1 5B2       0.115000
     21 H3           1.6170    -3.0680    -0.5810 ha         1 5B2       0.121000
     22 HN3          4.1880    -1.8520    -0.2890 hn         1 5B2       0.377000
     23 H13         -2.6030    -1.9240     0.8470 ha         1 5B2       0.111500
     24 H12         -5.0110    -1.3640     0.9030 ha         1 5B2       0.111500
     25 H11         -5.8070     0.8430     0.0610 ha         1 5B2       0.112000
     26 H10         -4.1720     2.4880    -0.8510 ha         1 5B2       0.111500
     27 H9          -1.7620     1.9350    -0.9330 ha         1 5B2       0.111500
@<TRIPOS>BOND
     1     1     2 ar  
     2     1     3 1   
     3     1     8 ar  
     4     2     5 ar  
     5     2    17 1   
     6     3     4 1   
     7     3    10 2   
     8     4    18 1   
     9     4    19 1   
    10     5     6 ar  
    11     5    11 1   
    12     6     7 ar  
    13     6    20 1   
    14     7     8 ar  
    15     7    21 1   
    16     8     9 1   
    17     9    10 1   
    18     9    22 1   
    19    11    12 ar  
    20    11    16 ar  
    21    12    13 ar  
    22    12    23 1   
    23    13    14 ar  
    24    13    24 1   
    25    14    15 ar  
    26    14    25 1   
    27    15    16 ar  
    28    15    26 1   
    29    16    27 1   
@<TRIPOS>SUBSTRUCTURE
     1 5B2         1 TEMP              0 ****  ****    0 ROOT
