@<TRIPOS>MOLECULE
5B3
   44    46     1     0     0
SMALL
bcc


@<TRIPOS>ATOM
      1 O1          -4.1180    -2.0180    -0.8060 o          1 5B3      -0.620800
      2 C7           0.0010    -1.3950     0.6750 ca         1 5B3      -0.149500
      3 O2          -3.9850     0.2520    -1.8540 o          1 5B3      -0.620800
      4 C6          -1.3710    -1.3620     0.5180 ca         1 5B3      -0.027000
      5 C1          -5.6220     1.9660     0.3950 c3         1 5B3      -0.108433
      6 N1          -4.2470    -0.0790     0.7010 n7         1 5B3      -0.866100
      7 C5          -1.9210    -0.6220    -0.5210 ca         1 5B3      -0.272500
      8 C4          -3.1410     2.1350     0.7560 c3         1 5B3      -0.108433
      9 C3          -4.6120     1.3300     2.5910 c3         1 5B3      -0.108433
     10 C2          -4.4040     1.3430     1.0770 c3         1 5B3       0.258200
     11 S1          -3.6780    -0.6300    -0.7340 sy         1 5B3       1.306200
     12 C10         -1.1100     0.0700    -1.4060 ca         1 5B3      -0.027000
     13 C9           0.2650     0.0310    -1.2380 ca         1 5B3      -0.149500
     14 C8           0.8440    -0.6960    -0.1970 cp         1 5B3       0.032000
     15 C11          2.3060    -0.7210    -0.0110 cp         1 5B3      -0.106000
     16 C17          3.0640     0.4180    -0.2270 ca         1 5B3      -0.020000
     17 C16          4.4440     0.3570    -0.0300 ca         1 5B3      -0.264900
     18 C15          5.5270     1.2880    -0.1310 cc         1 5B3       0.554800
     19 N4           5.4430     2.5960    -0.5470 nv         1 5B3      -0.850800
     20 N3           6.6610     0.7070     0.1660 nd         1 5B3      -0.580100
     21 N2           6.3730    -0.5840     0.4550 na         1 5B3      -0.015100
     22 C14          5.0570    -0.8440     0.3650 ca         1 5B3      -0.001200
     23 C13          4.3060    -2.0050     0.5820 ca         1 5B3      -0.164000
     24 C12          2.9480    -1.9170     0.3950 ca         1 5B3      -0.064000
     25 H7           0.4200    -1.9520     1.5030 ha         1 5B3       0.137500
     26 H6          -2.0040    -1.8910     1.2190 ha         1 5B3       0.151500
     27 H1          -6.5290     1.4090     0.6370 hc         1 5B3       0.047589
     28 H1A         -5.7630     2.9920     0.7380 hc         1 5B3       0.047589
     29 H1B         -5.5120     1.9870    -0.6870 hc         1 5B3       0.047589
     30 HN1         -4.9970    -0.6770     1.0330 hn         1 5B3       0.437800
     31 H4          -3.2580     3.1500     1.1370 hc         1 5B3       0.047589
     32 H4A         -2.2620     1.6980     1.2320 hc         1 5B3       0.047589
     33 H4B         -2.9530     2.2140    -0.3140 hc         1 5B3       0.047589
     34 H3          -5.4950     0.7480     2.8660 hc         1 5B3       0.047589
     35 H3A         -3.7490     0.9050     3.1030 hc         1 5B3       0.047589
     36 H3B         -4.7610     2.3470     2.9560 hc         1 5B3       0.047589
     37 H10         -1.5350     0.6380    -2.2220 ha         1 5B3       0.151500
     38 H9           0.8930     0.5590    -1.9430 ha         1 5B3       0.137500
     39 H17          2.5900     1.3470    -0.5210 ha         1 5B3       0.137000
     40 HN4          4.6110     3.0750    -0.2360 hn         1 5B3       0.392800
     41 HN4A         6.2630     3.1430    -0.3280 hn         1 5B3       0.392800
     42 HN2          7.1140    -1.2090     0.7200 hn         1 5B3       0.328700
     43 H13          4.7690    -2.9360     0.8800 ha         1 5B3       0.142000
     44 H12          2.3490    -2.8070     0.5440 ha         1 5B3       0.136000
@<TRIPOS>BOND
     1     1    11 2   
     2     2     4 ar  
     3     2    14 ar  
     4     2    25 1   
     5     3    11 2   
     6     4     7 ar  
     7     4    26 1   
     8     5    10 1   
     9     5    27 1   
    10     5    28 1   
    11     5    29 1   
    12     6    10 1   
    13     6    11 1   
    14     6    30 1   
    15     7    11 1   
    16     7    12 ar  
    17     8    10 1   
    18     8    31 1   
    19     8    32 1   
    20     8    33 1   
    21     9    10 1   
    22     9    34 1   
    23     9    35 1   
    24     9    36 1   
    25    12    13 ar  
    26    12    37 1   
    27    13    14 ar  
    28    13    38 1   
    29    14    15 1   
    30    15    16 ar  
    31    15    24 ar  
    32    16    17 ar  
    33    16    39 1   
    34    17    18 1   
    35    17    22 ar  
    36    18    19 1   
    37    18    20 2   
    38    19    40 1   
    39    19    41 1   
    40    20    21 1   
    41    21    22 1   
    42    21    42 1   
    43    22    23 ar  
    44    23    24 ar  
    45    23    43 1   
    46    24    44 1   
@<TRIPOS>SUBSTRUCTURE
     1 5B3         1 TEMP              0 ****  ****    0 ROOT
