@<TRIPOS>MOLECULE
5B3
   44    46     1     0     0
SMALL
No Charge or Current Charge


@<TRIPOS>ATOM
      1 O1          -4.2570    -2.0670    -0.7690 o          1 5B3      -0.550000
      2 C7          -0.0340    -1.4790     0.6620 ca         1 5B3      -0.131500
      3 O2          -4.1910     0.2680    -1.8000 o          1 5B3      -0.550000
      4 C6          -1.4270    -1.4670     0.4830 ca         1 5B3      -0.009000
      5 C1          -5.5220     2.0510     0.3700 c3         1 5B3      -0.108433
      6 N1          -4.3110    -0.1020     0.7190 n7         1 5B3      -0.921300
      7 C5          -1.9980    -0.6990    -0.5480 ca         1 5B3      -0.272500
      8 C4          -3.0040     2.0370     0.8180 c3         1 5B3      -0.108433
      9 C3          -4.6260     1.3360     2.6090 c3         1 5B3      -0.108433
     10 C2          -4.3540     1.3280     1.0880 c3         1 5B3       0.258200
     11 S1          -3.7840    -0.6820    -0.7630 sy         1 5B3       1.164600
     12 C10         -1.1660     0.0540    -1.4000 ca         1 5B3      -0.009000
     13 C9           0.2270     0.0380    -1.2140 ca         1 5B3      -0.131500
     14 C8           0.8230    -0.7280    -0.1800 cp         1 5B3       0.032000
     15 C11          2.3070    -0.7400     0.0160 cp         1 5B3      -0.106000
     16 C17          3.0850     0.4300    -0.2250 ca         1 5B3      -0.002000
     17 C16          4.4700     0.3620    -0.0240 ca         1 5B3      -0.264900
     18 C15          5.5290     1.3150    -0.1630 cc         1 5B3       0.554800
     19 N4           5.3680     2.5920    -0.5360 nv         1 5B3      -0.961200
     20 N3           6.7290     0.8370     0.1310 nd         1 5B3      -0.580100
     21 N2           6.4400    -0.4960     0.4770 na         1 5B3      -0.065400
     22 C14          5.0890    -0.7750     0.3850 ca         1 5B3      -0.001200
     23 C13          4.3810    -1.9530     0.6360 ca         1 5B3      -0.146000
     24 C12          2.9810    -1.9260     0.4480 ca         1 5B3      -0.046000
     25 H7           0.3830    -2.0660     1.4760 ha         1 5B3       0.119500
     26 H6          -2.0620    -2.0460     1.1520 ha         1 5B3       0.133500
     27 H1          -6.4590     1.4910     0.4710 hc         1 5B3       0.047589
     28 H1A         -5.6800     3.0450     0.8070 hc         1 5B3       0.047589
     29 H1B         -5.3220     2.2030    -0.6950 hc         1 5B3       0.047589
     30 HN1         -5.2560    -0.4740     0.7370 hn         1 5B3       0.493000
     31 H4          -3.0130     3.0500     1.2360 hc         1 5B3       0.047589
     32 H4A         -2.1730     1.4920     1.2820 hc         1 5B3       0.047589
     33 H4B         -2.8050     2.1320    -0.2550 hc         1 5B3       0.047589
     34 H3          -5.5790     0.8450     2.8440 hc         1 5B3       0.047589
     35 H3A         -3.8310     0.8100     3.1520 hc         1 5B3       0.047589
     36 H3B         -4.6730     2.3620     2.9940 hc         1 5B3       0.047589
     37 H10         -1.5910     0.6510    -2.2050 ha         1 5B3       0.133500
     38 H9           0.8510     0.6160    -1.8890 ha         1 5B3       0.119500
     39 H17          2.6180     1.3590    -0.5440 ha         1 5B3       0.119000
     40 HN4          4.4370     2.9860    -0.4660 hn         1 5B3       0.448000
     41 HN4A         6.1470     3.2180    -0.3700 hn         1 5B3       0.448000
     42 HN2          7.1700    -1.1500     0.7600 hn         1 5B3       0.379000
     43 H13          4.8870    -2.8600     0.9610 ha         1 5B3       0.124000
     44 H12          2.4140    -2.8370     0.6250 ha         1 5B3       0.118000
@<TRIPOS>BOND
     1     1    11 2   
     2     2     4 ar  
     3     2    14 ar  
     4     2    25 1   
     5     3    11 2   
     6     4     7 ar  
     7     4    26 1   
     8     5    10 1   
     9     5    27 1   
    10     5    28 1   
    11     5    29 1   
    12     6    10 1   
    13     6    11 1   
    14     6    30 1   
    15     7    11 1   
    16     7    12 ar  
    17     8    10 1   
    18     8    31 1   
    19     8    32 1   
    20     8    33 1   
    21     9    10 1   
    22     9    34 1   
    23     9    35 1   
    24     9    36 1   
    25    12    13 ar  
    26    12    37 1   
    27    13    14 ar  
    28    13    38 1   
    29    14    15 1   
    30    15    16 ar  
    31    15    24 ar  
    32    16    17 ar  
    33    16    39 1   
    34    17    18 1   
    35    17    22 ar  
    36    18    19 1   
    37    18    20 2   
    38    19    40 1   
    39    19    41 1   
    40    20    21 1   
    41    21    22 1   
    42    21    42 1   
    43    22    23 ar  
    44    23    24 ar  
    45    23    43 1   
    46    24    44 1   
@<TRIPOS>SUBSTRUCTURE
     1 5B3         1 TEMP              0 ****  ****    0 ROOT
