@<TRIPOS>MOLECULE
5B4
   57    61     1     0     0
SMALL
bcc


@<TRIPOS>ATOM
      1 C1           1.0250    -1.6050    -0.5300 ca         1 5B4       0.135900
      2 C2           1.6820    -1.6600     0.6890 ca         1 5B4       0.064100
      3 C3           0.9390    -1.7930     1.8490 ca         1 5B4      -0.127000
      4 C4          -0.4320    -1.8940     1.7530 ca         1 5B4       0.086900
      5 C5          -1.1040    -1.8400     0.5360 ca         1 5B4       0.048600
      6 O9           3.0450    -1.6270     0.7420 os         1 5B4      -0.229200
      7 C10          3.6800    -0.4360     0.6120 ca         1 5B4       0.171100
      8 C11          5.0620    -0.4800     0.5170 ca         1 5B4      -0.269300
      9 C12          5.7620     0.7180     0.4010 ca         1 5B4       0.554800
     10 C14          3.8270     1.9210     0.4710 ca         1 5B4       0.443200
     11 C16          7.2140     0.7310     0.2930 cc         1 5B4      -0.353800
     12 C15          3.0310     0.7920     0.5900 ca         1 5B4      -0.333300
     13 C34         -5.9100     3.8000     0.3300 ca         1 5B4       0.119900
     14 C33         -6.9100     2.8490     0.3160 ca         1 5B4      -0.148000
     15 C32         -6.5780     1.5140     0.1310 ca         1 5B4      -0.127500
     16 C35         -4.5820     3.4590     0.1620 ca         1 5B4      -0.148000
     17 C36         -4.2560     2.1240    -0.0080 ca         1 5B4      -0.127500
     18 C31         -5.2450     1.1410    -0.0260 ca         1 5B4       0.044600
     19 N30         -4.8310    -0.1840    -0.2430 ns         1 5B4      -0.474100
     20 C26         -5.4100    -1.3120     0.2380 c          1 5B4       0.712100
     21 O27         -6.4520    -1.3140     0.8650 o          1 5B4      -0.574100
     22 C25         -4.7120    -2.5960    -0.1240 cx         1 5B4      -0.354000
     23 C29         -5.5630    -3.5630    -0.9150 cx         1 5B4      -0.068400
     24 C28         -5.2590    -3.8650     0.5000 cx         1 5B4      -0.068400
     25 C23         -3.2320    -2.6330    -0.3780 c          1 5B4       0.708100
     26 O24         -2.7270    -3.2790    -1.2700 o          1 5B4      -0.553100
     27 N22         -2.4990    -1.9100     0.5210 ns         1 5B4      -0.485100
     28 C6          -0.3470    -1.6840    -0.6220 ca         1 5B4      -0.153000
     29 F7           1.7510    -1.4490    -1.6410 f          1 5B4      -0.116900
     30 F8          -1.1530    -2.0380     2.8730 f          1 5B4      -0.135900
     31 N13          5.1460     1.9040     0.3780 nb         1 5B4      -0.704000
     32 C20          8.0210     1.8450     0.1430 cd         1 5B4      -0.078300
     33 N19          9.2840     1.4050     0.0820 na         1 5B4       0.110400
     34 C21         10.4800     2.1950    -0.0860 c3         1 5B4       0.042600
     35 N18          9.3680     0.0800     0.1810 nd         1 5B4      -0.528800
     36 C17          8.1270    -0.3420     0.3100 cc         1 5B4       0.331200
     37 H1           1.4270    -1.8390     2.8140 ha         1 5B4       0.173000
     38 H2           5.5750    -1.4320     0.5310 ha         1 5B4       0.158000
     39 H3           3.3550     2.8970     0.4520 h4         1 5B4       0.016100
     40 H4           1.9580     0.8940     0.6700 ha         1 5B4       0.148000
     41 H5          -7.9440     3.1390     0.4390 ha         1 5B4       0.153000
     42 H6          -7.3690     0.7820     0.0990 ha         1 5B4       0.148000
     43 H7          -3.8100     4.2170     0.1730 ha         1 5B4       0.153000
     44 H8          -3.2160     1.8480    -0.1300 ha         1 5B4       0.148000
     45 H9          -3.9610    -0.2750    -0.7430 hn         1 5B4       0.325500
     46 H10         -6.5600    -3.2290    -1.1660 hc         1 5B4       0.095700
     47 H11         -5.0640    -4.1280    -1.6900 hc         1 5B4       0.095700
     48 H12         -4.5370    -4.6420     0.7150 hc         1 5B4       0.095700
     49 H13         -6.0340    -3.7410     1.2430 hc         1 5B4       0.095700
     50 H14         -2.9750    -1.5670     1.3430 hn         1 5B4       0.340500
     51 H15         -0.8170    -1.6070    -1.5910 ha         1 5B4       0.175000
     52 H16          7.7770     2.8920     0.0770 h4         1 5B4       0.187000
     53 H17         11.1560     2.0380     0.7510 h1         1 5B4       0.058033
     54 H18         10.9850     1.9230    -1.0110 h1         1 5B4       0.058033
     55 H19         10.2070     3.2450    -0.1280 h1         1 5B4       0.058033
     56 H20          7.9260    -1.3980     0.4100 h4         1 5B4       0.040100
     57 F37         -6.2360     5.0910     0.5060 f          1 5B4      -0.140900
@<TRIPOS>BOND
     1     1     2 ar  
     2     1    28 ar  
     3     1    29 1   
     4     2     3 ar  
     5     2     6 1   
     6     3     4 ar  
     7     3    37 1   
     8     4     5 ar  
     9     4    30 1   
    10     5    27 1   
    11     5    28 ar  
    12     6     7 1   
    13     7     8 ar  
    14     7    12 ar  
    15     8     9 ar  
    16     8    38 1   
    17     9    11 1   
    18     9    31 ar  
    19    10    12 ar  
    20    10    31 ar  
    21    10    39 1   
    22    11    32 2   
    23    11    36 1   
    24    12    40 1   
    25    13    14 ar  
    26    13    16 ar  
    27    13    57 1   
    28    14    15 ar  
    29    14    41 1   
    30    15    18 ar  
    31    15    42 1   
    32    16    17 ar  
    33    16    43 1   
    34    17    18 ar  
    35    17    44 1   
    36    18    19 1   
    37    19    20 1   
    38    19    45 1   
    39    20    21 2   
    40    20    22 1   
    41    22    23 1   
    42    22    24 1   
    43    22    25 1   
    44    23    24 1   
    45    23    46 1   
    46    23    47 1   
    47    24    48 1   
    48    24    49 1   
    49    25    26 2   
    50    25    27 1   
    51    27    50 1   
    52    28    51 1   
    53    32    33 1   
    54    32    52 1   
    55    33    34 1   
    56    33    35 1   
    57    34    53 1   
    58    34    54 1   
    59    34    55 1   
    60    35    36 2   
    61    36    56 1   
@<TRIPOS>SUBSTRUCTURE
     1 5B4         1 TEMP              0 ****  ****    0 ROOT
