@<TRIPOS>MOLECULE
5B4
   57    61     1     0     0
SMALL
No Charge or Current Charge


@<TRIPOS>ATOM
      1 C1           1.5270    -1.4460    -0.1390 ca         1 5B4       0.171000
      2 C2           2.0650    -1.7720     1.1250 ca         1 5B4       0.064100
      3 C3           1.2110    -2.1970     2.1540 ca         1 5B4      -0.109000
      4 C4          -0.1730    -2.2760     1.9290 ca         1 5B4       0.122000
      5 C5          -0.7270    -1.9400     0.6750 ca         1 5B4      -0.044000
      6 O9           3.4200    -1.7080     1.3700 os         1 5B4      -0.229200
      7 C10          4.1560    -0.5610     1.1800 ca         1 5B4       0.171100
      8 C11          5.5230    -0.6600     0.9110 ca         1 5B4      -0.186000
      9 C12          6.2740     0.5130     0.7270 ca         1 5B4       0.489500
     10 C14          4.3960     1.8340     1.0790 ca         1 5B4       0.377900
     11 C16          7.7060     0.4390     0.4380 cc         1 5B4      -0.288500
     12 C15          3.5810     0.7140     1.2740 ca         1 5B4      -0.250000
     13 C34         -7.7580     3.6980    -0.1780 ca         1 5B4       0.155000
     14 C33         -7.4380     2.9900     0.9880 ca         1 5B4      -0.130000
     15 C32         -6.7320     1.7750     0.9050 ca         1 5B4      -0.109500
     16 C35         -7.3760     3.2010    -1.4320 ca         1 5B4      -0.130000
     17 C36         -6.6710     1.9880    -1.5190 ca         1 5B4      -0.109500
     18 C31         -6.3410     1.2640    -0.3550 ca         1 5B4      -0.048000
     19 N30         -5.6260     0.0450    -0.5200 ns         1 5B4      -0.148000
     20 C26         -5.1270    -0.8780     0.3880 c          1 5B4       0.645100
     21 O27         -5.2140    -0.7870     1.6050 o          1 5B4      -0.574100
     22 C25         -4.4290    -2.0370    -0.2530 cx         1 5B4      -0.354000
     23 C29         -5.2180    -2.9180    -1.2140 cx         1 5B4      -0.068400
     24 C28         -4.8430    -3.4470     0.1500 cx         1 5B4      -0.068400
     25 C23         -2.9850    -1.7760    -0.5490 c          1 5B4       0.641100
     26 O24         -2.6280    -1.3540    -1.6390 o          1 5B4      -0.553100
     27 N22         -2.1390    -2.0430     0.5170 ns         1 5B4      -0.159000
     28 C6           0.1410    -1.5260    -0.3630 ca         1 5B4      -0.135000
     29 F7           2.3360    -1.0660    -1.1550 f          1 5B4      -0.152000
     30 F8          -0.9790    -2.6820     2.9370 f          1 5B4      -0.171000
     31 N13          5.7150     1.7430     0.8090 nb         1 5B4      -0.704000
     32 C20          8.4900     1.5420     0.2500 cd         1 5B4      -0.111000
     33 N19          9.7650     1.0220     0.0040 na         1 5B4       0.131800
     34 C21         10.9860     1.7950    -0.2640 c3         1 5B4       0.071900
     35 N18          9.7950    -0.3690     0.0340 nd         1 5B4      -0.528800
     36 C17          8.5410    -0.6770     0.2970 cc         1 5B4       0.265900
     37 H1           1.6180    -2.4600     3.1260 ha         1 5B4       0.155000
     38 H2           5.9910    -1.6350     0.8430 ha         1 5B4       0.140000
     39 H3           3.9820     2.8400     1.1430 h4         1 5B4       0.016100
     40 H4           2.5270     0.8480     1.4990 ha         1 5B4       0.130000
     41 H5          -7.7380     3.3810     1.9570 ha         1 5B4       0.135000
     42 H6          -6.5030     1.2500     1.8270 ha         1 5B4       0.130000
     43 H7          -7.6270     3.7550    -2.3340 ha         1 5B4       0.135000
     44 H8          -6.3790     1.6100    -2.4970 ha         1 5B4       0.130000
     45 H9          -5.4470    -0.1980    -1.4850 hn         1 5B4       0.159000
     46 H10         -6.2670    -2.6910    -1.3910 hc         1 5B4       0.095700
     47 H11         -4.7000    -3.3370    -2.0750 hc         1 5B4       0.095700
     48 H12         -4.0830    -4.2250     0.1940 hc         1 5B4       0.095700
     49 H13         -5.6420    -3.5630     0.8820 hc         1 5B4       0.095700
     50 H14         -2.6190    -2.3770     1.3430 hn         1 5B4       0.174000
     51 H15         -0.2290    -1.2680    -1.3490 ha         1 5B4       0.157000
     52 H16          8.2670     2.6040     0.2680 h4         1 5B4       0.169000
     53 H17         11.7390     1.5660     0.4980 h1         1 5B4       0.058033
     54 H18         11.3760     1.5310    -1.2540 h1         1 5B4       0.058033
     55 H19         10.7590     2.8670    -0.2390 h1         1 5B4       0.058033
     56 H20          8.2700    -1.7220     0.3790 h4         1 5B4       0.040100
     57 F37         -8.4360     4.8640    -0.0940 f          1 5B4      -0.176000
@<TRIPOS>BOND
     1     1     2 ar  
     2     1    28 ar  
     3     1    29 1   
     4     2     3 ar  
     5     2     6 1   
     6     3     4 ar  
     7     3    37 1   
     8     4     5 ar  
     9     4    30 1   
    10     5    27 1   
    11     5    28 ar  
    12     6     7 1   
    13     7     8 ar  
    14     7    12 ar  
    15     8     9 ar  
    16     8    38 1   
    17     9    11 1   
    18     9    31 ar  
    19    10    12 ar  
    20    10    31 ar  
    21    10    39 1   
    22    11    32 2   
    23    11    36 1   
    24    12    40 1   
    25    13    14 ar  
    26    13    16 ar  
    27    13    57 1   
    28    14    15 ar  
    29    14    41 1   
    30    15    18 ar  
    31    15    42 1   
    32    16    17 ar  
    33    16    43 1   
    34    17    18 ar  
    35    17    44 1   
    36    18    19 1   
    37    19    20 1   
    38    19    45 1   
    39    20    21 2   
    40    20    22 1   
    41    22    23 1   
    42    22    24 1   
    43    22    25 1   
    44    23    24 1   
    45    23    46 1   
    46    23    47 1   
    47    24    48 1   
    48    24    49 1   
    49    25    26 2   
    50    25    27 1   
    51    27    50 1   
    52    28    51 1   
    53    32    33 1   
    54    32    52 1   
    55    33    34 1   
    56    33    35 1   
    57    34    53 1   
    58    34    54 1   
    59    34    55 1   
    60    35    36 2   
    61    36    56 1   
@<TRIPOS>SUBSTRUCTURE
     1 5B4         1 TEMP              0 ****  ****    0 ROOT
