@<TRIPOS>MOLECULE
5B5
   88    91     1     0     0
SMALL
abcg2


@<TRIPOS>ATOM
      1 C2          -7.1750     2.0260     0.3650 ca         1 5B5       0.196100
      2 C3          -7.5180     0.6910     0.6070 ca         1 5B5      -0.199500
      3 C4          -6.5670    -0.2060     1.0430 ca         1 5B5       0.025000
      4 C5          -5.2560     0.2180     1.2470 ca         1 5B5      -0.339500
      5 C6          -4.9120     1.5440     1.0240 ca         1 5B5       0.025000
      6 C7          -5.8630     2.4480     0.5800 ca         1 5B5      -0.199500
      7 S8          -4.0220    -0.9390     1.7480 sy         1 5B5       1.197600
      8 O9          -3.0090    -0.1860     2.4770 o          1 5B5      -0.541500
      9 O10         -4.6960    -2.0510     2.3990 o          1 5B5      -0.541500
     10 N11         -3.3120    -1.5130     0.3840 n3         1 5B5      -0.786500
     11 C12         -3.7580    -2.7560    -0.2460 c3         1 5B5       0.232800
     12 C13         -4.1570    -2.6260    -1.7170 c3         1 5B5      -0.081700
     13 C14         -4.6180    -3.9950    -2.2080 c3         1 5B5      -0.090100
     14 C15         -5.2340    -1.5730    -1.9340 c3         1 5B5      -0.090100
     15 C16         -2.2520    -0.7240    -0.2230 c3         1 5B5       0.200800
     16 C17         -0.8530    -1.1250     0.2390 c3         1 5B5       0.135300
     17 O18         -0.5140    -2.4420    -0.1340 oh         1 5B5      -0.649000
     18 C19          0.2050    -0.1070    -0.2110 c3         1 5B5       0.100700
     19 N20          1.4590    -0.4180     0.4320 ns         1 5B5      -0.491900
     20 C21          2.2500     0.5020     1.0170 c          1 5B5       0.653100
     21 O22          1.9940     1.6810     1.1300 o          1 5B5      -0.541000
     22 O23          3.3500    -0.0870     1.5030 os         1 5B5      -0.454100
     23 C24          4.4580     0.7150     1.9010 c6         1 5B5       0.211300
     24 C25          6.2590     0.9500     3.5670 c6         1 5B5       0.168600
     25 O26          7.2350     0.7240     2.5720 os         1 5B5      -0.481000
     26 C27          6.8780     1.2180     1.3050 c5         1 5B5       0.386300
     27 O28          7.8070     0.7360     0.4010 os         1 5B5      -0.429000
     28 C29          7.4480    -0.6060     0.0770 c5         1 5B5       0.111600
     29 C30          5.9190    -0.7300     0.3020 c5         1 5B5       0.158500
     30 C31          5.5370     0.6640     0.8250 c5         1 5B5      -0.147700
     31 C32          0.3720    -0.0380    -1.7390 c3         1 5B5      -0.055100
     32 C33          2.6400     0.9600    -2.2050 ca         1 5B5      -0.101000
     33 C34          3.4500     2.0310    -2.5580 ca         1 5B5      -0.109000
     34 C35          2.8870     3.2580    -2.8830 ca         1 5B5      -0.104000
     35 C36          1.5070     3.4060    -2.8490 ca         1 5B5      -0.109000
     36 C37          0.7010     2.3350    -2.4900 ca         1 5B5      -0.101000
     37 C38          1.2560     1.1000    -2.1640 ca         1 5B5      -0.081300
     38 O39         -8.1630     2.8220    -0.0580 os         1 5B5      -0.335100
     39 C40         -7.8820     4.1880    -0.3090 c3         1 5B5       0.145900
     40 C51          4.9700     0.2180     3.2380 c6         1 5B5      -0.126400
     41 N52          5.1410    -1.0930    -0.8610 n7         1 5B5      -0.864400
     42 C53          5.2670    -2.4820    -1.2600 c3         1 5B5       0.160800
     43 C54          4.3950    -2.7780    -2.4660 c3         1 5B5      -0.094100
     44 H1          -8.5390     0.3670     0.4520 ha         1 5B5       0.128000
     45 H2          -6.8570    -1.2310     1.2290 ha         1 5B5       0.134500
     46 H3          -3.9050     1.8960     1.2030 ha         1 5B5       0.134500
     47 H4          -5.5630     3.4730     0.4170 ha         1 5B5       0.128000
     48 H5          -2.9680    -3.5040    -0.1480 h1         1 5B5       0.065700
     49 H6          -4.6120    -3.1370     0.3130 h1         1 5B5       0.065700
     50 H7          -3.2750    -2.3510    -2.3060 hc         1 5B5       0.042700
     51 H8          -5.5030    -4.3270    -1.6610 hc         1 5B5       0.036867
     52 H9          -4.8740    -3.9620    -3.2670 hc         1 5B5       0.036867
     53 H10         -3.8420    -4.7510    -2.0780 hc         1 5B5       0.036867
     54 H11         -6.1490    -1.8360    -1.3980 hc         1 5B5       0.036867
     55 H12         -4.9240    -0.5850    -1.5930 hc         1 5B5       0.036867
     56 H13         -5.4840    -1.4900    -2.9930 hc         1 5B5       0.036867
     57 H14         -2.3490    -0.8130    -1.3070 h1         1 5B5       0.052700
     58 H15         -2.4010     0.3380    -0.0170 h1         1 5B5       0.052700
     59 H16         -0.8480    -1.1200     1.3310 h1         1 5B5       0.113700
     60 H17         -0.5830    -2.5350    -1.0910 ho         1 5B5       0.434000
     61 H18         -0.1150     0.8740     0.1480 h1         1 5B5       0.093700
     62 H19          1.8350    -1.3450     0.3000 hn         1 5B5       0.335500
     63 H20          4.1360     1.7530     2.0220 h1         1 5B5       0.075700
     64 H21          6.6780     0.5940     4.5080 h1         1 5B5       0.050700
     65 H22          6.0640     2.0260     3.6860 h1         1 5B5       0.050700
     66 H23          6.9180     2.3160     1.2990 h2         1 5B5       0.078700
     67 H24          7.7210    -0.7850    -0.9660 h1         1 5B5       0.053700
     68 H25          8.0100    -1.3110     0.6960 h1         1 5B5       0.053700
     69 H26          5.7300    -1.4930     1.0630 h1         1 5B5       0.079700
     70 H27          5.2120     1.2750    -0.0260 hc         1 5B5       0.078700
     71 H28          0.7840    -0.9840    -2.1040 hc         1 5B5       0.046200
     72 H29         -0.6070     0.0790    -2.2100 hc         1 5B5       0.046200
     73 H31          4.5260     1.9060    -2.5840 ha         1 5B5       0.108500
     74 H32          3.5180     4.0920    -3.1640 ha         1 5B5       0.111000
     75 H33          1.0570     4.3570    -3.1060 ha         1 5B5       0.108500
     76 H34         -0.3760     2.4600    -2.4670 ha         1 5B5       0.115000
     77 H35         -8.8160     4.6380    -0.6370 h1         1 5B5       0.046700
     78 H36         -7.5400     4.7040     0.5910 h1         1 5B5       0.046700
     79 H37         -7.1350     4.3110    -1.0970 h1         1 5B5       0.046700
     80 H38          4.2300     0.4070     4.0190 hc         1 5B5       0.066700
     81 H39          5.1540    -0.8590     3.2150 hc         1 5B5       0.066700
     82 H40          5.4030    -0.4960    -1.6400 hn         1 5B5       0.408000
     83 H42          6.3040    -2.7780    -1.4840 h1         1 5B5       0.031700
     84 H43          4.9480    -3.1030    -0.4180 h1         1 5B5       0.031700
     85 H44          3.3500    -2.5380    -2.2610 hc         1 5B5       0.037700
     86 H45          4.7090    -2.1960    -3.3350 hc         1 5B5       0.037700
     87 H46          4.4550    -3.8320    -2.7390 hc         1 5B5       0.037700
     88 H30          3.0970     0.0150    -1.9360 ha         1 5B5       0.115000
@<TRIPOS>BOND
     1     1     2 ar  
     2     1     6 ar  
     3     1    38 1   
     4     2     3 ar  
     5     2    44 1   
     6     3     4 ar  
     7     3    45 1   
     8     4     5 ar  
     9     4     7 1   
    10     5     6 ar  
    11     5    46 1   
    12     6    47 1   
    13     7     8 2   
    14     7     9 2   
    15     7    10 1   
    16    10    11 1   
    17    10    15 1   
    18    11    12 1   
    19    11    48 1   
    20    11    49 1   
    21    12    13 1   
    22    12    14 1   
    23    12    50 1   
    24    13    51 1   
    25    13    52 1   
    26    13    53 1   
    27    14    54 1   
    28    14    55 1   
    29    14    56 1   
    30    15    16 1   
    31    15    57 1   
    32    15    58 1   
    33    16    17 1   
    34    16    18 1   
    35    16    59 1   
    36    17    60 1   
    37    18    19 1   
    38    18    31 1   
    39    18    61 1   
    40    19    20 1   
    41    19    62 1   
    42    20    21 2   
    43    20    22 1   
    44    22    23 1   
    45    23    30 1   
    46    23    40 1   
    47    23    63 1   
    48    24    25 1   
    49    24    40 1   
    50    24    64 1   
    51    24    65 1   
    52    25    26 1   
    53    26    27 1   
    54    26    30 1   
    55    26    66 1   
    56    27    28 1   
    57    28    29 1   
    58    28    67 1   
    59    28    68 1   
    60    29    30 1   
    61    29    41 1   
    62    29    69 1   
    63    30    70 1   
    64    31    37 1   
    65    31    71 1   
    66    31    72 1   
    67    32    33 ar  
    68    32    37 ar  
    69    32    88 1   
    70    33    34 ar  
    71    33    73 1   
    72    34    35 ar  
    73    34    74 1   
    74    35    36 ar  
    75    35    75 1   
    76    36    37 ar  
    77    36    76 1   
    78    38    39 1   
    79    39    77 1   
    80    39    78 1   
    81    39    79 1   
    82    40    80 1   
    83    40    81 1   
    84    41    42 1   
    85    41    82 1   
    86    42    43 1   
    87    42    83 1   
    88    42    84 1   
    89    43    85 1   
    90    43    86 1   
    91    43    87 1   
@<TRIPOS>SUBSTRUCTURE
     1 5B5         1 TEMP              0 ****  ****    0 ROOT
