@<TRIPOS>MOLECULE
5B5
   88    91     1     0     0
SMALL
No Charge or Current Charge


@<TRIPOS>ATOM
      1 C2          -8.3870     0.9190     1.4090 ca         1 5B5       0.196100
      2 C3          -7.5820     0.2970     2.3760 ca         1 5B5      -0.199500
      3 C4          -6.1820     0.3720     2.2970 ca         1 5B5       0.025000
      4 C5          -5.5820     1.0810     1.2380 ca         1 5B5      -0.339500
      5 C6          -6.3820     1.7060     0.2640 ca         1 5B5       0.025000
      6 C7          -7.7820     1.6260     0.3490 ca         1 5B5      -0.199500
      7 S8          -3.7930     1.1710     1.0980 sy         1 5B5       1.197600
      8 O9          -3.4590     2.5740     0.8340 o          1 5B5      -0.541500
      9 O10         -3.1510     0.4070     2.1720 o          1 5B5      -0.541500
     10 N11         -3.5100     0.3470    -0.3660 n3         1 5B5      -0.786500
     11 C12         -4.0360    -1.0420    -0.3990 c3         1 5B5       0.232800
     12 C13         -4.2250    -1.6400    -1.8210 c3         1 5B5      -0.081700
     13 C14         -4.7270    -3.1000    -1.7440 c3         1 5B5      -0.090100
     14 C15         -5.1670    -0.7770    -2.6970 c3         1 5B5      -0.090100
     15 C16         -2.1560     0.5580    -0.9590 c3         1 5B5       0.200800
     16 C17         -0.9380    -0.1460    -0.2650 c3         1 5B5       0.135300
     17 O18         -0.9190    -1.5700    -0.5270 oh         1 5B5      -0.649000
     18 C19          0.4350     0.4830    -0.6590 c3         1 5B5       0.100700
     19 N20          1.5100    -0.1360     0.1300 ns         1 5B5      -0.491900
     20 C21          2.5640     0.5290     0.6880 c          1 5B5       0.653100
     21 O22          2.7410     1.7360     0.6310 o          1 5B5      -0.541000
     22 O23          3.2690    -0.3370     1.4670 os         1 5B5      -0.454100
     23 C24          4.4480     0.1140     2.1570 c6         1 5B5       0.211300
     24 C25          6.0710    -0.3870     4.0560 c6         1 5B5       0.168600
     25 O26          7.1510    -0.2410     3.1040 os         1 5B5      -0.481000
     26 C27          6.9330     0.6650     1.9900 c5         1 5B5       0.386300
     27 O28          8.0020     0.4830     1.0480 os         1 5B5      -0.429000
     28 C29          7.7180    -0.6970     0.2560 c5         1 5B5       0.111600
     29 C30          6.2380    -1.1050     0.5870 c5         1 5B5       0.158500
     30 C31          5.6780     0.2090     1.2150 c5         1 5B5      -0.147700
     31 C32          0.7580     0.4350    -2.1800 c3         1 5B5      -0.055100
     32 C33          3.2180     0.4440    -2.8350 ca         1 5B5      -0.101000
     33 C34          4.4060     1.1180    -3.1660 ca         1 5B5      -0.109000
     34 C35          4.4280     2.5220    -3.2080 ca         1 5B5      -0.104000
     35 C36          3.2610     3.2500    -2.9220 ca         1 5B5      -0.109000
     36 C37          2.0730     2.5750    -2.5930 ca         1 5B5      -0.101000
     37 C38          2.0450     1.1670    -2.5450 ca         1 5B5      -0.081300
     38 O39         -9.7560     0.8060     1.5430 os         1 5B5      -0.335100
     39 C40        -10.6700     1.4020     0.6050 c3         1 5B5       0.145900
     40 C51          4.7520    -0.8010     3.3600 c6         1 5B5      -0.126400
     41 N52          5.4950    -1.4210    -0.6660 n7         1 5B5      -0.864400
     42 C53          5.8910    -2.6670    -1.3480 c3         1 5B5       0.160800
     43 C54          5.0010    -2.9140    -2.5750 c3         1 5B5      -0.094100
     44 H1          -8.0480    -0.2490     3.1920 ha         1 5B5       0.128000
     45 H2          -5.5740    -0.1210     3.0550 ha         1 5B5       0.134500
     46 H3          -5.9210     2.2460    -0.5630 ha         1 5B5       0.134500
     47 H4          -8.3760     2.1150    -0.4170 ha         1 5B5       0.128000
     48 H5          -3.3880    -1.7060     0.1880 h1         1 5B5       0.065700
     49 H6          -5.0220    -1.0880     0.0810 h1         1 5B5       0.065700
     50 H7          -3.2490    -1.6730    -2.3170 hc         1 5B5       0.042700
     51 H8          -5.7130    -3.1500    -1.2650 hc         1 5B5       0.036867
     52 H9          -4.8100    -3.5360    -2.7470 hc         1 5B5       0.036867
     53 H10         -4.0320    -3.7190    -1.1640 hc         1 5B5       0.036867
     54 H11         -6.1590    -0.6950    -2.2370 hc         1 5B5       0.036867
     55 H12         -4.7650     0.2350    -2.8250 hc         1 5B5       0.036867
     56 H13         -5.2840    -1.2200    -3.6930 hc         1 5B5       0.036867
     57 H14         -2.1710     0.2520    -2.0120 h1         1 5B5       0.052700
     58 H15         -1.9450     1.6350    -0.9850 h1         1 5B5       0.052700
     59 H16         -1.0400     0.0210     0.8150 h1         1 5B5       0.113700
     60 H17         -0.8670    -1.6930    -1.4980 ho         1 5B5       0.434000
     61 H18          0.3860     1.5440    -0.3740 h1         1 5B5       0.093700
     62 H19          1.4680    -1.1300     0.3110 hn         1 5B5       0.335500
     63 H20          4.2450     1.1170     2.5650 h1         1 5B5       0.075700
     64 H21          6.3530    -1.1370     4.8090 h1         1 5B5       0.050700
     65 H22          5.9300     0.5730     4.5740 h1         1 5B5       0.050700
     66 H23          6.8700     1.7060     2.3340 h2         1 5B5       0.078700
     67 H24          7.8610    -0.4450    -0.8030 h1         1 5B5       0.053700
     68 H25          8.4230    -1.4960     0.5220 h1         1 5B5       0.053700
     69 H26          6.2210    -1.9470     1.2930 h1         1 5B5       0.079700
     70 H27          5.4300     0.9520     0.4500 hc         1 5B5       0.078700
     71 H28          0.8150    -0.6110    -2.5060 hc         1 5B5       0.046200
     72 H29         -0.0680     0.8820    -2.7450 hc         1 5B5       0.046200
     73 H31          5.3080     0.5540    -3.3930 ha         1 5B5       0.108500
     74 H32          5.3470     3.0450    -3.4630 ha         1 5B5       0.111000
     75 H33          3.2770     4.3370    -2.9540 ha         1 5B5       0.108500
     76 H34          1.1740     3.1460    -2.3700 ha         1 5B5       0.115000
     77 H35        -11.7060     1.1900     0.8970 h1         1 5B5       0.046700
     78 H36        -10.5410     2.4910     0.5730 h1         1 5B5       0.046700
     79 H37        -10.5130     0.9980    -0.4040 h1         1 5B5       0.046700
     80 H38          3.9260    -0.7500     4.0820 hc         1 5B5       0.066700
     81 H39          4.8140    -1.8480     3.0390 hc         1 5B5       0.066700
     82 H40          5.5760    -0.6390    -1.3240 hn         1 5B5       0.408000
     83 H42          6.9380    -2.6150    -1.6760 h1         1 5B5       0.031700
     84 H43          5.7970    -3.5210    -0.6640 h1         1 5B5       0.031700
     85 H44          3.9460    -2.9810    -2.2830 hc         1 5B5       0.037700
     86 H45          5.1150    -2.1090    -3.3090 hc         1 5B5       0.037700
     87 H46          5.2800    -3.8570    -3.0590 hc         1 5B5       0.037700
     88 H30          3.2060    -0.6420    -2.8000 ha         1 5B5       0.115000
@<TRIPOS>BOND
     1     1     2 ar  
     2     1     6 ar  
     3     1    38 1   
     4     2     3 ar  
     5     2    44 1   
     6     3     4 ar  
     7     3    45 1   
     8     4     5 ar  
     9     4     7 1   
    10     5     6 ar  
    11     5    46 1   
    12     6    47 1   
    13     7     8 2   
    14     7     9 2   
    15     7    10 1   
    16    10    11 1   
    17    10    15 1   
    18    11    12 1   
    19    11    48 1   
    20    11    49 1   
    21    12    13 1   
    22    12    14 1   
    23    12    50 1   
    24    13    51 1   
    25    13    52 1   
    26    13    53 1   
    27    14    54 1   
    28    14    55 1   
    29    14    56 1   
    30    15    16 1   
    31    15    57 1   
    32    15    58 1   
    33    16    17 1   
    34    16    18 1   
    35    16    59 1   
    36    17    60 1   
    37    18    19 1   
    38    18    31 1   
    39    18    61 1   
    40    19    20 1   
    41    19    62 1   
    42    20    21 2   
    43    20    22 1   
    44    22    23 1   
    45    23    30 1   
    46    23    40 1   
    47    23    63 1   
    48    24    25 1   
    49    24    40 1   
    50    24    64 1   
    51    24    65 1   
    52    25    26 1   
    53    26    27 1   
    54    26    30 1   
    55    26    66 1   
    56    27    28 1   
    57    28    29 1   
    58    28    67 1   
    59    28    68 1   
    60    29    30 1   
    61    29    41 1   
    62    29    69 1   
    63    30    70 1   
    64    31    37 1   
    65    31    71 1   
    66    31    72 1   
    67    32    33 ar  
    68    32    37 ar  
    69    32    88 1   
    70    33    34 ar  
    71    33    73 1   
    72    34    35 ar  
    73    34    74 1   
    74    35    36 ar  
    75    35    75 1   
    76    36    37 ar  
    77    36    76 1   
    78    38    39 1   
    79    39    77 1   
    80    39    78 1   
    81    39    79 1   
    82    40    80 1   
    83    40    81 1   
    84    41    42 1   
    85    41    82 1   
    86    42    43 1   
    87    42    83 1   
    88    42    84 1   
    89    43    85 1   
    90    43    86 1   
    91    43    87 1   
@<TRIPOS>SUBSTRUCTURE
     1 5B5         1 TEMP              0 ****  ****    0 ROOT
