@<TRIPOS>MOLECULE
5B7
   84    87     1     0     0
SMALL
bcc


@<TRIPOS>ATOM
      1 C2           7.0660    -1.3470     1.5180 ca         1 5B7       0.196100
      2 C3           7.4190    -0.1070     0.9850 ca         1 5B7      -0.217000
      3 C4           6.4410     0.8460     0.7480 ca         1 5B7       0.006000
      4 C5           5.1130     0.5740     1.0350 ca         1 5B7      -0.340500
      5 C6           4.7590    -0.6540     1.5930 ca         1 5B7       0.006000
      6 C7           5.7260    -1.6080     1.8250 ca         1 5B7      -0.217000
      7 S8           3.8660     1.7780     0.6920 sy         1 5B7       1.335200
      8 O9           2.8460     1.6250     1.7210 o          1 5B7      -0.612300
      9 O10          4.5300     3.0610     0.5180 o          1 5B7      -0.612300
     10 N11          3.1700     1.3940    -0.7410 n3         1 5B7      -0.777500
     11 C12          3.6960     1.9380    -1.9930 c3         1 5B7       0.231800
     12 C13          5.0070     1.3340    -2.4930 c3         1 5B7      -0.090700
     13 C14          4.9310    -0.1790    -2.6490 c3         1 5B7      -0.087100
     14 C15          5.3770     2.0030    -3.8120 c3         1 5B7      -0.087100
     15 C16          2.1640     0.3410    -0.7740 c3         1 5B7       0.200800
     16 C17          0.7420     0.8750    -0.6240 c3         1 5B7       0.118100
     17 O18          0.3950     1.7670    -1.6590 oh         1 5B7      -0.582800
     18 C19         -0.2700    -0.2690    -0.4740 c3         1 5B7       0.090700
     19 N20         -1.5750     0.2870    -0.2030 ns         1 5B7      -0.546900
     20 C21         -2.4430    -0.2930     0.6530 c          1 5B7       0.759100
     21 O22         -2.1630    -1.1460     1.4680 o          1 5B7      -0.587000
     22 O23         -3.6630     0.2340     0.4990 os         1 5B7      -0.429900
     23 C24         -4.7340    -0.2960     1.2760 c6         1 5B7       0.188100
     24 C25         -4.8030     0.3260     2.6590 c6         1 5B7      -0.145400
     25 O26         -7.2180     0.2510     2.5870 os         1 5B7      -0.435600
     26 C27         -7.2770    -0.3230     1.3050 c5         1 5B7       0.342900
     27 O28         -8.2870     0.3190     0.6120 os         1 5B7      -0.378600
     28 C29         -7.7710     1.5620     0.1420 c5         1 5B7       0.093400
     29 C30         -6.2470     1.3710    -0.0270 c5         1 5B7       0.128100
     30 C31         -6.0130    -0.0510     0.4900 c5         1 5B7      -0.136700
     31 C32         -0.3120    -1.2160    -1.6900 c3         1 5B7      -0.059100
     32 C33         -2.6730    -2.0440    -1.9750 ca         1 5B7      -0.116000
     33 C34         -3.6720    -2.9820    -1.7510 ca         1 5B7      -0.124000
     34 C35         -3.3790    -4.1680    -1.0920 ca         1 5B7      -0.124000
     35 C36         -2.0790    -4.4120    -0.6670 ca         1 5B7      -0.124000
     36 C37         -1.0870    -3.4680    -0.8860 ca         1 5B7      -0.116000
     37 C38         -1.3700    -2.2700    -1.5360 ca         1 5B7      -0.089300
     38 O39          7.9340    -2.3300     1.7760 os         1 5B7      -0.310900
     39 C40          9.3070    -2.1190     1.4950 c3         1 5B7       0.122700
     40 O41         -5.8160     1.4490    -1.3610 os         1 5B7      -0.396600
     41 C42         -5.7420     2.7650    -1.8450 c3         1 5B7       0.120700
     42 C44         -6.0830    -0.1370     3.3330 c6         1 5B7       0.146400
     43 H1           8.4450     0.1400     0.7550 ha         1 5B7       0.145500
     44 H2           6.7350     1.8040     0.3420 ha         1 5B7       0.152000
     45 H3           3.7350    -0.8710     1.8650 ha         1 5B7       0.152000
     46 H4           5.4520    -2.5620     2.2570 ha         1 5B7       0.145500
     47 H5           2.9190     1.7780    -2.7410 h1         1 5B7       0.064200
     48 H6           3.7990     3.0190    -1.8980 h1         1 5B7       0.064200
     49 H7           5.7950     1.5640    -1.7690 hc         1 5B7       0.051700
     50 H8           4.1670    -0.4620    -3.3780 hc         1 5B7       0.036033
     51 H9           5.8850    -0.5790    -2.9970 hc         1 5B7       0.036033
     52 H10          4.6980    -0.6800    -1.7090 hc         1 5B7       0.036033
     53 H11          5.4710     3.0850    -3.7020 hc         1 5B7       0.036033
     54 H12          6.3280     1.6250    -4.1900 hc         1 5B7       0.036033
     55 H13          4.6180     1.8100    -4.5740 hc         1 5B7       0.036033
     56 H14          2.2790    -0.1930    -1.7190 h1         1 5B7       0.051700
     57 H15          2.3500    -0.4080    -0.0010 h1         1 5B7       0.051700
     58 H16          0.6940     1.4640     0.2940 h1         1 5B7       0.118700
     59 H17          0.4640     1.3180    -2.5080 ho         1 5B7       0.393000
     60 H18          0.0260    -0.8450     0.4040 h1         1 5B7       0.093700
     61 H19         -1.9560     0.9170    -0.8940 hn         1 5B7       0.328500
     62 H20         -4.6020    -1.3770     1.3850 h1         1 5B7       0.068700
     63 H21         -3.9450     0.0190     3.2590 hc         1 5B7       0.071200
     64 H22         -4.7890     1.4170     2.5960 hc         1 5B7       0.071200
     65 H23         -7.5210    -1.3910     1.3750 h2         1 5B7       0.078700
     66 H24         -8.2610     1.7990    -0.8030 h1         1 5B7       0.059700
     67 H25         -7.9960     2.3620     0.8530 h1         1 5B7       0.059700
     68 H26         -5.7120     2.1170     0.5770 h1         1 5B7       0.057700
     69 H27         -6.0320    -0.7250    -0.3740 hc         1 5B7       0.088700
     70 H28         -0.5050    -0.6400    -2.6010 hc         1 5B7       0.046700
     71 H29          0.6640    -1.6890    -1.8120 hc         1 5B7       0.046700
     72 H31         -4.6810    -2.7840    -2.0920 ha         1 5B7       0.131500
     73 H32         -4.1570    -4.9000    -0.9160 ha         1 5B7       0.130000
     74 H33         -1.8380    -5.3380    -0.1600 ha         1 5B7       0.131500
     75 H34         -0.0770    -3.6640    -0.5430 ha         1 5B7       0.128000
     76 H35          9.4760    -1.9260     0.4330 h1         1 5B7       0.046700
     77 H36          9.7170    -1.2920     2.0780 h1         1 5B7       0.046700
     78 H37          9.8210    -3.0350     1.7730 h1         1 5B7       0.046700
     79 H38         -6.7180     3.2660    -1.8650 h1         1 5B7       0.029700
     80 H39         -5.0610     3.3820    -1.2470 h1         1 5B7       0.029700
     81 H40         -5.3640     2.7250    -2.8650 h1         1 5B7       0.029700
     82 H41         -6.0610    -1.2280     3.4710 h1         1 5B7       0.051200
     83 H42         -6.1860     0.3110     4.3210 h1         1 5B7       0.051200
     84 H30         -2.9130    -1.1250    -2.4960 ha         1 5B7       0.128000
@<TRIPOS>BOND
     1     1     2 ar  
     2     1     6 ar  
     3     1    38 1   
     4     2     3 ar  
     5     2    43 1   
     6     3     4 ar  
     7     3    44 1   
     8     4     5 ar  
     9     4     7 1   
    10     5     6 ar  
    11     5    45 1   
    12     6    46 1   
    13     7     8 2   
    14     7     9 2   
    15     7    10 1   
    16    10    11 1   
    17    10    15 1   
    18    11    12 1   
    19    11    47 1   
    20    11    48 1   
    21    12    13 1   
    22    12    14 1   
    23    12    49 1   
    24    13    50 1   
    25    13    51 1   
    26    13    52 1   
    27    14    53 1   
    28    14    54 1   
    29    14    55 1   
    30    15    16 1   
    31    15    56 1   
    32    15    57 1   
    33    16    17 1   
    34    16    18 1   
    35    16    58 1   
    36    17    59 1   
    37    18    19 1   
    38    18    31 1   
    39    18    60 1   
    40    19    20 1   
    41    19    61 1   
    42    20    21 2   
    43    20    22 1   
    44    22    23 1   
    45    23    24 1   
    46    23    30 1   
    47    23    62 1   
    48    24    42 1   
    49    24    63 1   
    50    24    64 1   
    51    25    26 1   
    52    25    42 1   
    53    26    27 1   
    54    26    30 1   
    55    26    65 1   
    56    27    28 1   
    57    28    29 1   
    58    28    66 1   
    59    28    67 1   
    60    29    30 1   
    61    29    40 1   
    62    29    68 1   
    63    30    69 1   
    64    31    37 1   
    65    31    70 1   
    66    31    71 1   
    67    32    33 ar  
    68    32    37 ar  
    69    32    84 1   
    70    33    34 ar  
    71    33    72 1   
    72    34    35 ar  
    73    34    73 1   
    74    35    36 ar  
    75    35    74 1   
    76    36    37 ar  
    77    36    75 1   
    78    38    39 1   
    79    39    76 1   
    80    39    77 1   
    81    39    78 1   
    82    40    41 1   
    83    41    79 1   
    84    41    80 1   
    85    41    81 1   
    86    42    82 1   
    87    42    83 1   
@<TRIPOS>SUBSTRUCTURE
     1 5B7         1 TEMP              0 ****  ****    0 ROOT
