@<TRIPOS>MOLECULE
5B7
   84    87     1     0     0
SMALL
No Charge or Current Charge


@<TRIPOS>ATOM
      1 C2           3.0850    -1.9150     2.2220 ca         1 5B7       0.196100
      2 C3           4.2770    -1.7430     1.4880 ca         1 5B7      -0.199000
      3 C4           4.5500    -0.5140     0.8640 ca         1 5B7       0.024000
      4 C5           3.6240     0.5440     0.9570 ca         1 5B7      -0.340500
      5 C6           2.4450     0.3820     1.7110 ca         1 5B7       0.024000
      6 C7           2.1830    -0.8470     2.3370 ca         1 5B7      -0.199000
      7 S8           3.9580     2.0940     0.1000 sy         1 5B7       1.193600
      8 O9           2.9270     3.0650     0.4800 o          1 5B7      -0.541500
      9 O10          5.3910     2.3700     0.2400 o          1 5B7      -0.541500
     10 N11          3.7030     1.7090    -1.5530 n3         1 5B7      -0.777500
     11 C12          3.4570     2.8760    -2.4390 c3         1 5B7       0.231800
     12 C13          4.6360     3.8780    -2.5930 c3         1 5B7      -0.090700
     13 C14          5.9110     3.2020    -3.1540 c3         1 5B7      -0.087100
     14 C15          4.2240     5.0830    -3.4690 c3         1 5B7      -0.087100
     15 C16          2.8100     0.5530    -1.8470 c3         1 5B7       0.200800
     16 C17          1.2820     0.7580    -1.5730 c3         1 5B7       0.141300
     17 O18          0.6270     1.3750    -2.7070 oh         1 5B7      -0.645000
     18 C19          0.5520    -0.5610    -1.1740 c3         1 5B7       0.090700
     19 N20         -0.8510    -0.2880    -0.8350 ns         1 5B7      -0.479900
     20 C21         -1.4980    -0.7400     0.2790 c          1 5B7       0.643100
     21 O22         -0.9980    -1.4100     1.1670 o          1 5B7      -0.538000
     22 O23         -2.7920    -0.3220     0.2290 os         1 5B7      -0.453100
     23 C24         -3.7040    -0.6130     1.3020 c6         1 5B7       0.211300
     24 C25         -3.3930     0.2550     2.5450 c6         1 5B7      -0.145400
     25 O26         -5.7960     0.3120     3.0790 os         1 5B7      -0.482000
     26 C27         -6.1880    -0.5400     1.9720 c5         1 5B7       0.389300
     27 O28         -7.3910    -0.0090     1.4010 os         1 5B7      -0.425000
     28 C29         -7.0350     1.1930     0.6800 c5         1 5B7       0.116600
     29 C30         -5.5280     1.0210     0.2730 c5         1 5B7       0.151300
     30 C31         -5.1600    -0.3900     0.8310 c5         1 5B7      -0.136700
     31 C32          0.6440    -1.7060    -2.2180 c3         1 5B7      -0.059100
     32 C33         -1.1470    -3.5150    -2.0960 ca         1 5B7      -0.098000
     33 C34         -1.6450    -4.7230    -1.5770 ca         1 5B7      -0.106000
     34 C35         -0.8950    -5.4470    -0.6350 ca         1 5B7      -0.106000
     35 C36          0.3540    -4.9620    -0.2120 ca         1 5B7      -0.106000
     36 C37          0.8530    -3.7550    -0.7310 ca         1 5B7      -0.098000
     37 C38          0.1050    -3.0240    -1.6760 ca         1 5B7      -0.089300
     38 O39          2.7570    -3.1030     2.8430 os         1 5B7      -0.334100
     39 C40          3.5800    -4.2780     2.7320 c3         1 5B7       0.145900
     40 O41         -5.4160     0.9640    -1.1720 os         1 5B7      -0.443000
     41 C42         -5.6170     2.1910    -1.8970 c3         1 5B7       0.143900
     42 C44         -4.4800     0.0990     3.6310 c6         1 5B7       0.169600
     43 H1           4.9980    -2.5480     1.3860 ha         1 5B7       0.127500
     44 H2           5.4680    -0.3950     0.2890 ha         1 5B7       0.134000
     45 H3           1.7230     1.1920     1.8060 ha         1 5B7       0.134000
     46 H4           1.2670    -0.9780     2.9070 ha         1 5B7       0.127500
     47 H5           3.2160     2.5180    -3.4500 h1         1 5B7       0.064200
     48 H6           2.5710     3.4270    -2.0940 h1         1 5B7       0.064200
     49 H7           4.8810     4.2850    -1.6060 hc         1 5B7       0.051700
     50 H8           5.7240     2.7830    -4.1500 hc         1 5B7       0.036033
     51 H9           6.7300     3.9260    -3.2350 hc         1 5B7       0.036033
     52 H10          6.2460     2.3890    -2.5000 hc         1 5B7       0.036033
     53 H11          3.3510     5.5930    -3.0420 hc         1 5B7       0.036033
     54 H12          5.0400     5.8120    -3.5370 hc         1 5B7       0.036033
     55 H13          3.9680     4.7600    -4.4860 hc         1 5B7       0.036033
     56 H14          2.9230     0.2830    -2.9050 h1         1 5B7       0.051700
     57 H15          3.1500    -0.3370    -1.3070 h1         1 5B7       0.051700
     58 H16          1.1920     1.4220    -0.7030 h1         1 5B7       0.118700
     59 H17          0.6900     0.7530    -3.4630 ho         1 5B7       0.432000
     60 H18          1.0480    -0.9240    -0.2640 h1         1 5B7       0.093700
     61 H19         -1.4050     0.2720    -1.4700 hn         1 5B7       0.328500
     62 H20         -3.5970    -1.6740     1.5750 h1         1 5B7       0.068700
     63 H21         -2.4200    -0.0230     2.9700 hc         1 5B7       0.071200
     64 H22         -3.3120     1.3120     2.2590 hc         1 5B7       0.071200
     65 H23         -6.3160    -1.5810     2.2990 h2         1 5B7       0.078700
     66 H24         -7.7080     1.3080    -0.1790 h1         1 5B7       0.059700
     67 H25         -7.1640     2.0580     1.3440 h1         1 5B7       0.059700
     68 H26         -4.8980     1.8260     0.6750 h1         1 5B7       0.057700
     69 H27         -5.3440    -1.1640     0.0780 hc         1 5B7       0.088700
     70 H28          0.1050    -1.4170    -3.1280 hc         1 5B7       0.046700
     71 H29          1.6880    -1.8530    -2.5180 hc         1 5B7       0.046700
     72 H31         -2.6140    -5.0960    -1.9030 ha         1 5B7       0.113500
     73 H32         -1.2810    -6.3810    -0.2330 ha         1 5B7       0.112000
     74 H33          0.9350    -5.5200     0.5200 ha         1 5B7       0.113500
     75 H34          1.8180    -3.3840    -0.3930 ha         1 5B7       0.110000
     76 H35          3.6830    -4.5840     1.6840 h1         1 5B7       0.046700
     77 H36          4.5790    -4.0950     3.1470 h1         1 5B7       0.046700
     78 H37          3.1290    -5.1100     3.2870 h1         1 5B7       0.046700
     79 H38         -6.6300     2.5830    -1.7420 h1         1 5B7       0.029700
     80 H39         -4.8960     2.9540    -1.5750 h1         1 5B7       0.029700
     81 H40         -5.4780     2.0240    -2.9730 h1         1 5B7       0.029700
     82 H41         -4.4360    -0.9120     4.0610 h1         1 5B7       0.051200
     83 H42         -4.3100     0.8200     4.4440 h1         1 5B7       0.051200
     84 H30         -1.7390    -2.9570    -2.8190 ha         1 5B7       0.110000
@<TRIPOS>BOND
     1     1     2 ar  
     2     1     6 ar  
     3     1    38 1   
     4     2     3 ar  
     5     2    43 1   
     6     3     4 ar  
     7     3    44 1   
     8     4     5 ar  
     9     4     7 1   
    10     5     6 ar  
    11     5    45 1   
    12     6    46 1   
    13     7     8 2   
    14     7     9 2   
    15     7    10 1   
    16    10    11 1   
    17    10    15 1   
    18    11    12 1   
    19    11    47 1   
    20    11    48 1   
    21    12    13 1   
    22    12    14 1   
    23    12    49 1   
    24    13    50 1   
    25    13    51 1   
    26    13    52 1   
    27    14    53 1   
    28    14    54 1   
    29    14    55 1   
    30    15    16 1   
    31    15    56 1   
    32    15    57 1   
    33    16    17 1   
    34    16    18 1   
    35    16    58 1   
    36    17    59 1   
    37    18    19 1   
    38    18    31 1   
    39    18    60 1   
    40    19    20 1   
    41    19    61 1   
    42    20    21 2   
    43    20    22 1   
    44    22    23 1   
    45    23    24 1   
    46    23    30 1   
    47    23    62 1   
    48    24    42 1   
    49    24    63 1   
    50    24    64 1   
    51    25    26 1   
    52    25    42 1   
    53    26    27 1   
    54    26    30 1   
    55    26    65 1   
    56    27    28 1   
    57    28    29 1   
    58    28    66 1   
    59    28    67 1   
    60    29    30 1   
    61    29    40 1   
    62    29    68 1   
    63    30    69 1   
    64    31    37 1   
    65    31    70 1   
    66    31    71 1   
    67    32    33 ar  
    68    32    37 ar  
    69    32    84 1   
    70    33    34 ar  
    71    33    72 1   
    72    34    35 ar  
    73    34    73 1   
    74    35    36 ar  
    75    35    74 1   
    76    36    37 ar  
    77    36    75 1   
    78    38    39 1   
    79    39    76 1   
    80    39    77 1   
    81    39    78 1   
    82    40    41 1   
    83    41    79 1   
    84    41    80 1   
    85    41    81 1   
    86    42    82 1   
    87    42    83 1   
@<TRIPOS>SUBSTRUCTURE
     1 5B7         1 TEMP              0 ****  ****    0 ROOT
