@<TRIPOS>MOLECULE
5B8
  105   109     1     0     0
SMALL
bcc


@<TRIPOS>ATOM
      1 CAW         -2.3660    -2.0390     1.3210 c6         1 5B8      -0.073900
      2 CAO         -3.3250    -0.9980     1.8880 c6         1 5B8      -0.075900
      3 CAN         -4.7080    -1.5840     2.1370 c6         1 5B8      -0.075400
      4 CAP         -5.2540    -2.2000     0.8570 c6         1 5B8      -0.075900
      5 CAX         -4.3020    -3.2420     0.2790 c6         1 5B8      -0.073900
      6 CBS         -2.9010    -2.6730     0.0330 c6         1 5B8      -0.049700
      7 CBU         -1.9350    -3.7540    -0.4870 c3         1 5B8      -0.155700
      8 CBQ         -2.4540    -4.5240    -1.7230 c3         1 5B8       0.162100
      9 CAC         -2.8010    -3.6760    -2.9310 c3         1 5B8      -0.089100
     10 OAF         -1.5020    -5.4830    -2.1480 oh         1 5B8      -0.596800
     11 CBK         -0.5790    -3.1330    -0.7900 c          1 5B8       0.685100
     12 OAE         -0.5150    -2.1710    -1.5470 o          1 5B8      -0.595100
     13 N            0.5430    -3.5970    -0.1890 n          1 5B8      -0.456800
     14 CBA          0.7020    -4.8760     0.4920 c6         1 5B8       0.104000
     15 CAR          1.4430    -5.8770    -0.3870 c6         1 5B8      -0.108400
     16 CAQ          2.7580    -5.3060    -0.9040 c6         1 5B8      -0.074400
     17 CB           2.5510    -3.9390    -1.5500 c6         1 5B8      -0.090400
     18 CA           1.8400    -3.0310    -0.5550 c6         1 5B8       0.046700
     19 C            1.7900    -1.5770    -0.9990 c          1 5B8       0.676100
     20 O            2.1570    -1.1830    -2.0760 o          1 5B8      -0.526000
     21 OBI          1.4710    -0.7950     0.0260 os         1 5B8      -0.423900
     22 CBR          1.3440     0.6240    -0.1650 c3         1 5B8       0.205400
     23 CAZ          2.6440     1.3560     0.1630 c3         1 5B8      -0.094400
     24 CAV          3.8160     1.1360    -0.7960 c3         1 5B8      -0.024100
     25 CBL          4.9740     2.0240    -0.4310 ca         1 5B8      -0.076300
     26 CAM          5.8550     1.6420     0.5880 ca         1 5B8      -0.187000
     27 CAJ          5.1760     3.2410    -1.0540 ca         1 5B8      -0.123000
     28 CAK          6.2330     4.0710    -0.6800 ca         1 5B8      -0.186000
     29 CBO          7.1040     3.6930     0.3260 ca         1 5B8       0.108100
     30 OBE          8.1540     4.4200     0.7600 os         1 5B8      -0.298900
     31 CAA          8.3940     5.6670     0.1450 c3         1 5B8       0.122700
     32 CBP          6.9090     2.4530     0.9700 ca         1 5B8       0.111100
     33 OBF          7.8020     2.1530     1.9340 os         1 5B8      -0.299900
     34 CAB          7.6460     0.9350     2.6310 c3         1 5B8       0.123700
     35 CBN          0.2450     1.0890     0.7560 ca         1 5B8      -0.054300
     36 CAL         -0.8440     1.7630     0.2340 ca         1 5B8      -0.142000
     37 CAI          0.3380     0.8930     2.1350 ca         1 5B8      -0.142000
     38 CAG         -0.6440     1.4020     2.9630 ca         1 5B8      -0.101000
     39 CAH         -1.7340     2.0960     2.4480 ca         1 5B8      -0.217000
     40 CBM         -1.8450     2.2600     1.0720 ca         1 5B8       0.138100
     41 OBH         -2.8770     2.8730     0.4610 os         1 5B8      -0.306900
     42 CAU         -4.0180     3.2070     1.2290 c3         1 5B8       0.143400
     43 CBD         -5.0870     3.7310     0.2950 c3         1 5B8       0.167800
     44 NBV         -5.5310     2.7670    -0.6900 n3         1 5B8      -0.701600
     45 CBB         -6.2850     3.4130    -1.7510 c6         1 5B8       0.124800
     46 CAS         -6.7020     2.3950    -2.7940 c6         1 5B8       0.129400
     47 OBG         -7.4670     1.3560    -2.2240 os         1 5B8      -0.403600
     48 CAT         -6.7470     0.7180    -1.1950 c6         1 5B8       0.129400
     49 CBC         -6.3200     1.6930    -0.1140 c6         1 5B8       0.124800
     50 H1          -1.3940    -1.5710     1.1430 hc         1 5B8       0.040950
     51 H2          -2.2120    -2.8280     2.0680 hc         1 5B8       0.040950
     52 H3          -2.9120    -0.5730     2.8040 hc         1 5B8       0.041450
     53 H4          -3.4060    -0.1650     1.1810 hc         1 5B8       0.041450
     54 H5          -4.6450    -2.3530     2.9140 hc         1 5B8       0.035700
     55 H6          -5.3870    -0.8140     2.5120 hc         1 5B8       0.035700
     56 H7          -6.2360    -2.6490     1.0270 hc         1 5B8       0.041450
     57 H8          -5.4000    -1.4090     0.1130 hc         1 5B8       0.041450
     58 H9          -4.2300    -4.0930     0.9680 hc         1 5B8       0.040950
     59 H10         -4.7340    -3.6280    -0.6470 hc         1 5B8       0.040950
     60 H11         -2.9820    -1.8810    -0.7180 hc         1 5B8       0.076700
     61 H12         -1.8510    -4.4950     0.3130 hc         1 5B8       0.046700
     62 H13         -3.3670    -5.0400    -1.4040 h1         1 5B8       0.026700
     63 H14         -1.9240    -3.1980    -3.3630 hc         1 5B8       0.051700
     64 H15         -3.2630    -4.3020    -3.6960 hc         1 5B8       0.051700
     65 H16         -3.5180    -2.8940    -2.6790 hc         1 5B8       0.051700
     66 H17         -1.4830    -6.2000    -1.5070 ho         1 5B8       0.394000
     67 H18          1.2670    -4.6970     1.4110 h1         1 5B8       0.049200
     68 H19         -0.2620    -5.2730     0.7960 h1         1 5B8       0.049200
     69 H20          1.6180    -6.7900     0.1860 hc         1 5B8       0.052200
     70 H21          0.8100    -6.1460    -1.2350 hc         1 5B8       0.052200
     71 H22          3.4640    -5.2000    -0.0740 hc         1 5B8       0.043700
     72 H23          3.2150    -5.9960    -1.6170 hc         1 5B8       0.043700
     73 H24          3.5140    -3.5060    -1.8250 hc         1 5B8       0.069200
     74 H25          1.9590    -4.0250    -2.4650 hc         1 5B8       0.069200
     75 H26          2.4340    -3.0280     0.3680 h1         1 5B8       0.066700
     76 H27          1.0610     0.8280    -1.2010 h1         1 5B8       0.078700
     77 H28          2.4040     2.4230     0.1750 hc         1 5B8       0.053700
     78 H29          2.9550     1.1050     1.1820 hc         1 5B8       0.053700
     79 H30          4.1390     0.0940    -0.7710 hc         1 5B8       0.056200
     80 H31          3.4970     1.3470    -1.8180 hc         1 5B8       0.056200
     81 H32          5.6990     0.6860     1.0720 ha         1 5B8       0.134000
     82 H33          4.5100     3.5630    -1.8460 ha         1 5B8       0.133000
     83 H34          6.3580     5.0160    -1.1910 ha         1 5B8       0.135000
     84 H35          8.6070     5.5650    -0.9220 h1         1 5B8       0.038033
     85 H36          7.5530     6.3550     0.2690 h1         1 5B8       0.038033
     86 H37          9.2660     6.0920     0.6370 h1         1 5B8       0.038033
     87 H38          8.4570     0.8860     3.3530 h1         1 5B8       0.037700
     88 H39          6.6940     0.8880     3.1670 h1         1 5B8       0.037700
     89 H40          7.7150     0.0690     1.9670 h1         1 5B8       0.037700
     90 H41         -0.9360     1.9070    -0.8360 ha         1 5B8       0.153000
     91 H42          1.1740     0.3550     2.5630 ha         1 5B8       0.138000
     92 H43         -0.5720     1.2600     4.0340 ha         1 5B8       0.127000
     93 H44         -2.4860     2.4780     3.1260 ha         1 5B8       0.131000
     94 H45         -4.3650     2.3330     1.7920 h1         1 5B8       0.033700
     95 H46         -3.7850     3.9880     1.9620 h1         1 5B8       0.033700
     96 H47         -5.9180     4.1020     0.9180 h1         1 5B8       0.043200
     97 H48         -4.6900     4.6010    -0.2330 h1         1 5B8       0.043200
     98 H50         -7.1820     3.9280    -1.3640 h1         1 5B8       0.039700
     99 H51         -5.6590     4.1710    -2.2280 h1         1 5B8       0.039700
    100 H52         -7.3160     2.8730    -3.5580 h1         1 5B8       0.052950
    101 H53         -5.8060     1.9870    -3.2840 h1         1 5B8       0.052950
    102 H54         -7.3940    -0.0510    -0.7700 h1         1 5B8       0.052950
    103 H55         -5.8540     0.2210    -1.6050 h1         1 5B8       0.052950
    104 H56         -5.7320     1.1410     0.6240 h1         1 5B8       0.039700
    105 H57         -7.2120     2.0800     0.4100 h1         1 5B8       0.039700
@<TRIPOS>BOND
     1     1     2 1   
     2     1     6 1   
     3     1    50 1   
     4     1    51 1   
     5     2     3 1   
     6     2    52 1   
     7     2    53 1   
     8     3     4 1   
     9     3    54 1   
    10     3    55 1   
    11     4     5 1   
    12     4    56 1   
    13     4    57 1   
    14     5     6 1   
    15     5    58 1   
    16     5    59 1   
    17     6     7 1   
    18     6    60 1   
    19     7     8 1   
    20     7    11 1   
    21     7    61 1   
    22     8     9 1   
    23     8    10 1   
    24     8    62 1   
    25     9    63 1   
    26     9    64 1   
    27     9    65 1   
    28    10    66 1   
    29    11    12 2   
    30    11    13 1   
    31    13    14 1   
    32    13    18 1   
    33    14    15 1   
    34    14    67 1   
    35    14    68 1   
    36    15    16 1   
    37    15    69 1   
    38    15    70 1   
    39    16    17 1   
    40    16    71 1   
    41    16    72 1   
    42    17    18 1   
    43    17    73 1   
    44    17    74 1   
    45    18    19 1   
    46    18    75 1   
    47    19    20 2   
    48    19    21 1   
    49    21    22 1   
    50    22    23 1   
    51    22    35 1   
    52    22    76 1   
    53    23    24 1   
    54    23    77 1   
    55    23    78 1   
    56    24    25 1   
    57    24    79 1   
    58    24    80 1   
    59    25    26 ar  
    60    25    27 ar  
    61    26    32 ar  
    62    26    81 1   
    63    27    28 ar  
    64    27    82 1   
    65    28    29 ar  
    66    28    83 1   
    67    29    30 1   
    68    29    32 ar  
    69    30    31 1   
    70    31    84 1   
    71    31    85 1   
    72    31    86 1   
    73    32    33 1   
    74    33    34 1   
    75    34    87 1   
    76    34    88 1   
    77    34    89 1   
    78    35    36 ar  
    79    35    37 ar  
    80    36    40 ar  
    81    36    90 1   
    82    37    38 ar  
    83    37    91 1   
    84    38    39 ar  
    85    38    92 1   
    86    39    40 ar  
    87    39    93 1   
    88    40    41 1   
    89    41    42 1   
    90    42    43 1   
    91    42    94 1   
    92    42    95 1   
    93    43    44 1   
    94    43    96 1   
    95    43    97 1   
    96    44    45 1   
    97    44    49 1   
    98    45    46 1   
    99    45    98 1   
   100    45    99 1   
   101    46    47 1   
   102    46   100 1   
   103    46   101 1   
   104    47    48 1   
   105    48    49 1   
   106    48   102 1   
   107    48   103 1   
   108    49   104 1   
   109    49   105 1   
@<TRIPOS>SUBSTRUCTURE
     1 5B8         1 TEMP              0 ****  ****    0 ROOT
