@<TRIPOS>MOLECULE
5B8
  105   109     1     0     0
SMALL
No Charge or Current Charge


@<TRIPOS>ATOM
      1 CAW         -3.4720    -2.8210    -0.9850 c6         1 5B8      -0.073900
      2 CAO         -4.6830    -2.0740    -1.5980 c6         1 5B8      -0.075900
      3 CAN         -5.6800    -3.0620    -2.2460 c6         1 5B8      -0.075400
      4 CAP         -4.9730    -3.9380    -3.3060 c6         1 5B8      -0.075900
      5 CAX         -3.7590    -4.6850    -2.7010 c6         1 5B8      -0.073900
      6 CBS         -2.7360    -3.7080    -2.0360 c6         1 5B8      -0.049700
      7 CBU         -1.5120    -4.4670    -1.3920 c3         1 5B8      -0.155700
      8 CBQ         -0.7560    -5.4370    -2.3530 c3         1 5B8       0.185300
      9 CAC         -0.1880    -4.7970    -3.6410 c3         1 5B8      -0.089100
     10 OAF          0.3160    -6.0700    -1.6520 oh         1 5B8      -0.659000
     11 CBK         -0.5160    -3.4990    -0.6860 c          1 5B8       0.618100
     12 OAE          0.0060    -2.5890    -1.3200 o          1 5B8      -0.595100
     13 N           -0.2870    -3.6170     0.7150 n          1 5B8      -0.389800
     14 CBA         -0.2200    -4.9340     1.4110 c6         1 5B8       0.104000
     15 CAR          1.2480    -5.3370     1.6950 c6         1 5B8      -0.108400
     16 CAQ          1.9910    -4.2390     2.4900 c6         1 5B8      -0.074400
     17 CB           1.8560    -2.8650     1.7910 c6         1 5B8      -0.090400
     18 CA           0.3580    -2.5220     1.5290 c6         1 5B8       0.046700
     19 C            0.1060    -1.0520     1.0570 c          1 5B8       0.627100
     20 O           -1.0210    -0.6290     0.8280 o          1 5B8      -0.477000
     21 OBI          1.2380    -0.2710     1.0080 os         1 5B8      -0.447100
     22 CBR          1.1180     1.1120     0.6280 c3         1 5B8       0.228600
     23 CAZ          2.5480     1.6640     0.4330 c3         1 5B8      -0.094400
     24 CAV          3.3190     1.0060    -0.7340 c3         1 5B8      -0.024100
     25 CBL          4.6800     1.6560    -0.9540 ca         1 5B8      -0.076300
     26 CAM          5.8110     1.1850    -0.2620 ca         1 5B8      -0.169000
     27 CAJ          4.8100     2.7380    -1.8430 ca         1 5B8      -0.105000
     28 CAK          6.0590     3.3460    -2.0480 ca         1 5B8      -0.168000
     29 CBO          7.2010     2.8750    -1.3600 ca         1 5B8       0.108100
     30 OBE          8.4500     3.4490    -1.5410 os         1 5B8      -0.322100
     31 CAA          8.6750     4.5410    -2.4510 c3         1 5B8       0.145900
     32 CBP          7.0750     1.7890    -0.4600 ca         1 5B8       0.111100
     33 OBF          8.2080     1.3470     0.2060 os         1 5B8      -0.323100
     34 CAB          8.1780     0.2510     1.1380 c3         1 5B8       0.146900
     35 CBN          0.3500     1.8760     1.7110 ca         1 5B8      -0.054300
     36 CAL         -0.8050     2.6040     1.3650 ca         1 5B8      -0.124000
     37 CAI          0.7600     1.8410     3.0600 ca         1 5B8      -0.124000
     38 CAG          0.0230     2.5200     4.0450 ca         1 5B8      -0.083000
     39 CAH         -1.1370     3.2320     3.6930 ca         1 5B8      -0.199000
     40 CBM         -1.5540     3.2720     2.3460 ca         1 5B8       0.138100
     41 OBH         -2.6930     3.9310     1.9400 os         1 5B8      -0.330100
     42 CAU         -3.6790     4.4050     2.8770 c3         1 5B8       0.166600
     43 CBD         -4.9130     4.9300     2.0900 c3         1 5B8       0.167800
     44 NBV         -5.5070     3.9950     1.0880 n3         1 5B8      -0.701600
     45 CBB         -6.6160     4.6200     0.3040 c6         1 5B8       0.124800
     46 CAS         -7.1910     3.6420    -0.7650 c6         1 5B8       0.152600
     47 OBG         -7.6070     2.4030    -0.1410 os         1 5B8      -0.450000
     48 CAT         -6.5250     1.7410     0.5570 c6         1 5B8       0.152600
     49 CBC         -5.9360     2.6770     1.6560 c6         1 5B8       0.124800
     50 H1          -2.7850    -2.0780    -0.5620 hc         1 5B8       0.040950
     51 H2          -3.8120    -3.4410    -0.1430 hc         1 5B8       0.040950
     52 H3          -5.1930    -1.4890    -0.8190 hc         1 5B8       0.041450
     53 H4          -4.3310    -1.3550    -2.3500 hc         1 5B8       0.041450
     54 H5          -6.1260    -3.7030    -1.4710 hc         1 5B8       0.035700
     55 H6          -6.5090    -2.5090    -2.7110 hc         1 5B8       0.035700
     56 H7          -5.6860    -4.6640    -3.7220 hc         1 5B8       0.041450
     57 H8          -4.6420    -3.3110    -4.1450 hc         1 5B8       0.041450
     58 H9          -4.1110    -5.4160    -1.9590 hc         1 5B8       0.040950
     59 H10         -3.2790    -5.2620    -3.5020 hc         1 5B8       0.040950
     60 H11         -2.3320    -3.0430    -2.8130 hc         1 5B8       0.076700
     61 H12         -1.9510    -5.1120    -0.6260 hc         1 5B8       0.046700
     62 H13         -1.4660    -6.2130    -2.6650 h1         1 5B8       0.026700
     63 H14          0.5610    -4.0290    -3.4150 hc         1 5B8       0.051700
     64 H15          0.2910    -5.5590    -4.2650 hc         1 5B8       0.051700
     65 H16         -0.9850    -4.3390    -4.2380 hc         1 5B8       0.051700
     66 H17          0.6780    -6.7620    -2.2470 ho         1 5B8       0.433000
     67 H18         -0.7690    -4.8630     2.3620 h1         1 5B8       0.049200
     68 H19         -0.6880    -5.7390     0.8330 h1         1 5B8       0.049200
     69 H20          1.2740    -6.2850     2.2500 hc         1 5B8       0.052200
     70 H21          1.7680    -5.5170     0.7440 hc         1 5B8       0.052200
     71 H22          1.5780    -4.1780     3.5070 hc         1 5B8       0.043700
     72 H23          3.0530    -4.5050     2.5980 hc         1 5B8       0.043700
     73 H24          2.3210    -2.0990     2.4270 hc         1 5B8       0.069200
     74 H25          2.4090    -2.8670     0.8410 hc         1 5B8       0.069200
     75 H26         -0.1320    -2.5340     2.5140 h1         1 5B8       0.066700
     76 H27          0.5820     1.1980    -0.3280 h1         1 5B8       0.078700
     77 H28          2.4810     2.7430     0.2470 hc         1 5B8       0.053700
     78 H29          3.1220     1.5390     1.3590 hc         1 5B8       0.053700
     79 H30          3.4420    -0.0660    -0.5330 hc         1 5B8       0.056200
     80 H31          2.7180     1.0760    -1.6490 hc         1 5B8       0.056200
     81 H32          5.6900     0.3530     0.4250 ha         1 5B8       0.116000
     82 H33          3.9380     3.1110    -2.3760 ha         1 5B8       0.115000
     83 H34          6.1210     4.1790    -2.7430 ha         1 5B8       0.117000
     84 H35          8.4130     4.2530    -3.4770 h1         1 5B8       0.038033
     85 H36          8.0780     5.4170    -2.1660 h1         1 5B8       0.038033
     86 H37          9.7320     4.8330    -2.4390 h1         1 5B8       0.038033
     87 H38          9.1820     0.0730     1.5450 h1         1 5B8       0.037700
     88 H39          7.5050     0.4690     1.9760 h1         1 5B8       0.037700
     89 H40          7.8430    -0.6710     0.6450 h1         1 5B8       0.037700
     90 H41         -1.1430     2.6340     0.3330 ha         1 5B8       0.135000
     91 H42          1.6460     1.2790     3.3460 ha         1 5B8       0.120000
     92 H43          0.3460     2.4860     5.0830 ha         1 5B8       0.109000
     93 H44         -1.6940     3.7440     4.4720 ha         1 5B8       0.113000
     94 H45         -3.9960     3.5940     3.5440 h1         1 5B8       0.033700
     95 H46         -3.2720     5.2170     3.4930 h1         1 5B8       0.033700
     96 H47         -5.6780     5.2180     2.8240 h1         1 5B8       0.043200
     97 H48         -4.6050     5.8540     1.5820 h1         1 5B8       0.043200
     98 H50         -7.4320     4.9260     0.9760 h1         1 5B8       0.039700
     99 H51         -6.2600     5.5270    -0.2050 h1         1 5B8       0.039700
    100 H52         -8.0550     4.1010    -1.2660 h1         1 5B8       0.052950
    101 H53         -6.4280     3.4270    -1.5260 h1         1 5B8       0.052950
    102 H54         -6.9030     0.8160     1.0150 h1         1 5B8       0.052950
    103 H55         -5.7400     1.4700    -0.1640 h1         1 5B8       0.052950
    104 H56         -5.0860     2.1600     2.1240 h1         1 5B8       0.039700
    105 H57         -6.6960     2.8270     2.4380 h1         1 5B8       0.039700
@<TRIPOS>BOND
     1     1     2 1   
     2     1     6 1   
     3     1    50 1   
     4     1    51 1   
     5     2     3 1   
     6     2    52 1   
     7     2    53 1   
     8     3     4 1   
     9     3    54 1   
    10     3    55 1   
    11     4     5 1   
    12     4    56 1   
    13     4    57 1   
    14     5     6 1   
    15     5    58 1   
    16     5    59 1   
    17     6     7 1   
    18     6    60 1   
    19     7     8 1   
    20     7    11 1   
    21     7    61 1   
    22     8     9 1   
    23     8    10 1   
    24     8    62 1   
    25     9    63 1   
    26     9    64 1   
    27     9    65 1   
    28    10    66 1   
    29    11    12 2   
    30    11    13 1   
    31    13    14 1   
    32    13    18 1   
    33    14    15 1   
    34    14    67 1   
    35    14    68 1   
    36    15    16 1   
    37    15    69 1   
    38    15    70 1   
    39    16    17 1   
    40    16    71 1   
    41    16    72 1   
    42    17    18 1   
    43    17    73 1   
    44    17    74 1   
    45    18    19 1   
    46    18    75 1   
    47    19    20 2   
    48    19    21 1   
    49    21    22 1   
    50    22    23 1   
    51    22    35 1   
    52    22    76 1   
    53    23    24 1   
    54    23    77 1   
    55    23    78 1   
    56    24    25 1   
    57    24    79 1   
    58    24    80 1   
    59    25    26 ar  
    60    25    27 ar  
    61    26    32 ar  
    62    26    81 1   
    63    27    28 ar  
    64    27    82 1   
    65    28    29 ar  
    66    28    83 1   
    67    29    30 1   
    68    29    32 ar  
    69    30    31 1   
    70    31    84 1   
    71    31    85 1   
    72    31    86 1   
    73    32    33 1   
    74    33    34 1   
    75    34    87 1   
    76    34    88 1   
    77    34    89 1   
    78    35    36 ar  
    79    35    37 ar  
    80    36    40 ar  
    81    36    90 1   
    82    37    38 ar  
    83    37    91 1   
    84    38    39 ar  
    85    38    92 1   
    86    39    40 ar  
    87    39    93 1   
    88    40    41 1   
    89    41    42 1   
    90    42    43 1   
    91    42    94 1   
    92    42    95 1   
    93    43    44 1   
    94    43    96 1   
    95    43    97 1   
    96    44    45 1   
    97    44    49 1   
    98    45    46 1   
    99    45    98 1   
   100    45    99 1   
   101    46    47 1   
   102    46   100 1   
   103    46   101 1   
   104    47    48 1   
   105    48    49 1   
   106    48   102 1   
   107    48   103 1   
   108    49   104 1   
   109    49   105 1   
@<TRIPOS>SUBSTRUCTURE
     1 5B8         1 TEMP              0 ****  ****    0 ROOT
