@<TRIPOS>MOLECULE
5B9
   34    36     1     0     0
SMALL
abcg2


@<TRIPOS>ATOM
      1 C1          -2.7320    -0.2700     0.0300 ca         1 5B9      -0.027000
      2 C2          -1.3940     0.2180    -0.0350 ca         1 5B9      -0.079300
      3 C3          -3.8090     0.6560     0.0130 ca         1 5B9      -0.042000
      4 C11         -2.2440     2.4820    -0.1420 ca         1 5B9      -0.096000
      5 C12         -5.4020    -1.1610     0.1600 ca         1 5B9      -0.125000
      6 C13          2.1210    -0.7240    -0.0100 ca         1 5B9       0.155100
      7 C14          3.2890     0.0510     0.0760 ca         1 5B9      -0.145600
      8 C15          2.2020    -2.1110    -0.1200 ca         1 5B9      -0.231000
      9 C16          4.5120    -0.6090     0.0610 ca         1 5B9      -0.067000
     10 C17          3.2800     1.5730     0.1710 c          1 5B9       0.723600
     11 C18          3.4430    -2.7360    -0.1660 ca         1 5B9      -0.108000
     12 C19          4.6060    -1.9890    -0.0790 ca         1 5B9      -0.172000
     13 C4          -3.0400    -1.6510     0.1100 ca         1 5B9      -0.098000
     14 C5          -0.2580    -0.7690    -0.0230 c3         1 5B9       0.212900
     15 C6          -1.1700     1.5680    -0.1230 ca         1 5B9      -0.062000
     16 C7          -3.5340     2.0410    -0.0740 ca         1 5B9      -0.124000
     17 C8          -5.1390     0.1790     0.0810 ca         1 5B9      -0.099000
     18 C9          -4.3380    -2.0840     0.1720 ca         1 5B9      -0.124000
     19 O10          0.9500    -0.0610     0.0650 os         1 5B9      -0.310100
     20 O20          4.1010     2.0680     0.9660 o          1 5B9      -0.717000
     21 O21          2.4930     2.1870    -0.5720 o          1 5B9      -0.717000
     22 H1          -2.0340     3.5410    -0.2120 ha         1 5B9       0.115000
     23 H2          -6.4230    -1.5150     0.2120 ha         1 5B9       0.100000
     24 H3           1.3120    -2.7240    -0.1690 ha         1 5B9       0.089000
     25 H4           5.4160    -0.0210     0.1510 ha         1 5B9       0.123000
     26 H5           3.4890    -3.8130    -0.2610 ha         1 5B9       0.081000
     27 H6           5.5740    -2.4710    -0.1080 ha         1 5B9       0.088000
     28 H7          -2.2480    -2.3880     0.1200 ha         1 5B9       0.111000
     29 H8          -0.3640    -1.4590     0.8240 h1         1 5B9       0.028200
     30 H9          -0.2910    -1.3790    -0.9350 h1         1 5B9       0.028200
     31 H10         -0.1580     1.9470    -0.1850 ha         1 5B9       0.186000
     32 H11         -4.3590     2.7430    -0.0880 ha         1 5B9       0.100000
     33 H12         -5.9500     0.8970     0.0680 ha         1 5B9       0.102000
     34 H13         -4.5470    -3.1440     0.2330 ha         1 5B9       0.101000
@<TRIPOS>BOND
     1     1     2 ar  
     2     1     3 ar  
     3     1    13 ar  
     4     2    14 1   
     5     2    15 ar  
     6     3    16 ar  
     7     3    17 ar  
     8     4    15 ar  
     9     4    16 ar  
    10     4    22 1   
    11     5    17 ar  
    12     5    18 ar  
    13     5    23 1   
    14     6     7 ar  
    15     6     8 ar  
    16     6    19 1   
    17     7     9 ar  
    18     7    10 1   
    19     8    11 ar  
    20     8    24 1   
    21     9    12 ar  
    22     9    25 1   
    23    10    20 1   
    24    10    21 1   
    25    11    12 ar  
    26    11    26 1   
    27    12    27 1   
    28    13    18 ar  
    29    13    28 1   
    30    14    19 1   
    31    14    29 1   
    32    14    30 1   
    33    15    31 1   
    34    16    32 1   
    35    17    33 1   
    36    18    34 1   
@<TRIPOS>SUBSTRUCTURE
     1 5B9         1 TEMP              0 ****  ****    0 ROOT
