@<TRIPOS>MOLECULE
5B9
   34    36     1     0     0
SMALL
No Charge or Current Charge


@<TRIPOS>ATOM
      1 C1          -2.7930    -0.2590     0.0160 ca         1 5B9      -0.027000
      2 C2          -1.4550     0.2180    -0.0730 ca         1 5B9      -0.079300
      3 C3          -3.8690     0.6640     0.0420 ca         1 5B9      -0.042000
      4 C11         -2.3050     2.5170    -0.1240 ca         1 5B9      -0.096000
      5 C12         -5.4710    -1.1670     0.1960 ca         1 5B9      -0.125000
      6 C13          2.2000    -0.7240    -0.0350 ca         1 5B9       0.155100
      7 C14          3.3850     0.0380     0.0560 ca         1 5B9      -0.145600
      8 C15          2.2830    -2.1340    -0.1230 ca         1 5B9      -0.231000
      9 C16          4.6350    -0.6160     0.0710 ca         1 5B9      -0.067000
     10 C17          3.3330     1.5370     0.1490 c          1 5B9       0.723600
     11 C18          3.5330    -2.7740    -0.1160 ca         1 5B9      -0.108000
     12 C19          4.7070    -2.0150    -0.0170 ca         1 5B9      -0.172000
     13 C4          -3.0870    -1.6440     0.0770 ca         1 5B9      -0.098000
     14 C5          -0.2720    -0.7640    -0.0970 c3         1 5B9       0.212900
     15 C6          -1.2320     1.6140    -0.1490 ca         1 5B9      -0.062000
     16 C7          -3.6200     2.0450    -0.0260 ca         1 5B9      -0.124000
     17 C8          -5.1980     0.2070     0.1330 ca         1 5B9      -0.099000
     18 C9          -4.4160    -2.0910     0.1670 ca         1 5B9      -0.124000
     19 O10          0.9850    -0.0690    -0.0140 os         1 5B9      -0.310100
     20 O20          3.9060     2.0700     1.0910 o          1 5B9      -0.717000
     21 O21          2.8140     2.1640    -0.7640 o          1 5B9      -0.717000
     22 H1          -2.1160     3.5870    -0.1810 ha         1 5B9       0.115000
     23 H2          -6.4990    -1.5160     0.2650 ha         1 5B9       0.100000
     24 H3           1.3910    -2.7500    -0.1930 ha         1 5B9       0.089000
     25 H4           5.5520    -0.0330     0.1470 ha         1 5B9       0.123000
     26 H5           3.5900    -3.8580    -0.1840 ha         1 5B9       0.081000
     27 H6           5.6750    -2.5110    -0.0090 ha         1 5B9       0.088000
     28 H7          -2.2990    -2.3920     0.0520 ha         1 5B9       0.111000
     29 H8          -0.3650    -1.4540     0.7510 h1         1 5B9       0.028200
     30 H9          -0.3200    -1.3490    -1.0250 h1         1 5B9       0.028200
     31 H10         -0.2230     2.0160    -0.2300 ha         1 5B9       0.186000
     32 H11         -4.4450     2.7540    -0.0070 ha         1 5B9       0.100000
     33 H12         -6.0210     0.9180     0.1530 ha         1 5B9       0.102000
     34 H13         -4.6280    -3.1570     0.2130 ha         1 5B9       0.101000
@<TRIPOS>BOND
     1     1     2 ar  
     2     1     3 ar  
     3     1    13 ar  
     4     2    14 1   
     5     2    15 ar  
     6     3    16 ar  
     7     3    17 ar  
     8     4    15 ar  
     9     4    16 ar  
    10     4    22 1   
    11     5    17 ar  
    12     5    18 ar  
    13     5    23 1   
    14     6     7 ar  
    15     6     8 ar  
    16     6    19 1   
    17     7     9 ar  
    18     7    10 1   
    19     8    11 ar  
    20     8    24 1   
    21     9    12 ar  
    22     9    25 1   
    23    10    20 1   
    24    10    21 1   
    25    11    12 ar  
    26    11    26 1   
    27    12    27 1   
    28    13    18 ar  
    29    13    28 1   
    30    14    19 1   
    31    14    29 1   
    32    14    30 1   
    33    15    31 1   
    34    16    32 1   
    35    17    33 1   
    36    18    34 1   
@<TRIPOS>SUBSTRUCTURE
     1 5B9         1 TEMP              0 ****  ****    0 ROOT
