@<TRIPOS>MOLECULE
5BA
   62    64     1     0     0
SMALL
No Charge or Current Charge


@<TRIPOS>ATOM
      1 CAO         -5.9470     1.0390     0.9850 c6         1 5BA       0.165800
      2 CAM         -7.2090     1.9320     1.2110 c6         1 5BA       0.163800
      3 NBD         -8.4800     1.1470     1.1430 n3         1 5BA      -0.719600
      4 CAD         -9.6800     1.9780     1.3780 c3         1 5BA       0.153100
      5 CAN         -8.5450     0.3880    -0.1430 c6         1 5BA       0.163800
      6 CAP         -7.2820    -0.5050    -0.3690 c6         1 5BA       0.165800
      7 N           -6.0100     0.2790    -0.3050 n3         1 5BA      -0.704600
      8 CA          -4.7960    -0.5670    -0.5580 c3         1 5BA       0.075800
      9 C           -3.4120     0.1300    -0.7710 c          1 5BA       0.583700
     10 O           -3.3260     1.3430    -0.9470 o          1 5BA      -0.502100
     11 CAV         -2.1570    -0.7220    -0.7660 ca         1 5BA      -0.225600
     12 CAJ         -0.8890    -0.1000    -0.7540 ca         1 5BA       0.001000
     13 CAH         -2.2210    -2.1330    -0.7750 ca         1 5BA      -0.009000
     14 CAI         -1.0440    -2.8970    -0.7670 ca         1 5BA      -0.231000
     15 CAW          0.2190    -2.2710    -0.7500 ca         1 5BA       0.232100
     16 OAT          1.3910    -3.0020    -0.7730 os         1 5BA      -0.322100
     17 CAL          1.4140    -4.4360    -0.7170 c3         1 5BA       0.162600
     18 CAK          2.8910    -4.8710    -0.7090 c3         1 5BA      -0.082400
     19 CAA          3.0700    -6.4010    -0.6440 c3         1 5BA      -0.091100
     20 CAY          0.2970    -0.8650    -0.7490 ca         1 5BA      -0.218900
     21 CAZ          1.5880    -0.1900    -0.7060 cc         1 5BA       0.587500
     22 NAR          2.4570    -0.4430     0.2660 nd         1 5BA      -0.639300
     23 NAS          1.8060     0.6970    -1.7070 ns         1 5BA      -0.405400
     24 CBB          2.9300     1.4150    -1.8480 c          1 5BA       0.572200
     25 OAF          3.0760     2.2020    -2.7710 o          1 5BA      -0.519000
     26 CAX          3.9160     1.1420    -0.7990 cc         1 5BA      -0.243500
     27 Br           5.5250     2.1440    -0.9710 br         1 5BA      -0.037700
     28 CBA          3.6850     0.2310     0.2260 cd         1 5BA       0.240400
     29 CBC          4.6720    -0.1050     1.3390 c3         1 5BA      -0.018500
     30 CAC          4.1790     0.4090     2.7110 c3         1 5BA      -0.081600
     31 CAB          5.0030    -1.6170     1.3830 c3         1 5BA      -0.081600
     32 H1          -5.0580     1.6850     1.0120 h1         1 5BA       0.039200
     33 H2          -5.8590     0.3400     1.8300 h1         1 5BA       0.039200
     34 H3          -7.1180     2.4260     2.1890 h1         1 5BA       0.040950
     35 H4          -7.2140     2.7270     0.4490 h1         1 5BA       0.040950
     36 H6          -9.7830     2.7480     0.6020 h1         1 5BA       0.030700
     37 H7         -10.5870     1.3590     1.3720 h1         1 5BA       0.030700
     38 H8          -9.6180     2.4790     2.3540 h1         1 5BA       0.030700
     39 H9          -9.4370    -0.2560    -0.1610 h1         1 5BA       0.040950
     40 H10         -8.6340     1.0840    -0.9900 h1         1 5BA       0.040950
     41 H11         -7.2750    -1.2990     0.3930 h1         1 5BA       0.039200
     42 H12         -7.3750    -1.0000    -1.3470 h1         1 5BA       0.039200
     43 H14         -4.6690    -1.2690     0.2760 h1         1 5BA       0.049700
     44 H15         -4.9590    -1.1750    -1.4580 h1         1 5BA       0.049700
     45 H16         -0.8210     0.9870    -0.7320 ha         1 5BA       0.142000
     46 H17         -3.1750    -2.6550    -0.7970 ha         1 5BA       0.117000
     47 H18         -1.1360    -3.9790    -0.7810 ha         1 5BA       0.127000
     48 H19          0.9200    -4.7970     0.1940 h1         1 5BA       0.039700
     49 H20          0.9070    -4.8680    -1.5910 h1         1 5BA       0.039700
     50 H21          3.3850    -4.4910    -1.6120 hc         1 5BA       0.060200
     51 H22          3.3960    -4.4150     0.1510 hc         1 5BA       0.060200
     52 H23          2.6140    -6.8070     0.2680 hc         1 5BA       0.038033
     53 H24          2.6020    -6.8840    -1.5100 hc         1 5BA       0.038033
     54 H25          4.1350    -6.6620    -0.6390 hc         1 5BA       0.038033
     55 H27          5.6250     0.3990     1.1500 hc         1 5BA       0.067700
     56 H28          3.2490    -0.0910     3.0090 hc         1 5BA       0.040533
     57 H29          4.9310     0.2240     3.4880 hc         1 5BA       0.040533
     58 H30          3.9900     1.4890     2.6710 hc         1 5BA       0.040533
     59 H31          5.3660    -1.9590     0.4070 hc         1 5BA       0.040533
     60 H32          5.7840    -1.8200     2.1260 hc         1 5BA       0.040533
     61 H33          4.1190    -2.2100     1.6480 hc         1 5BA       0.040533
     62 H5           1.0970     0.8260    -2.4110 hn         1 5BA       0.336500
@<TRIPOS>BOND
     1     1     2 1   
     2     1     7 1   
     3     1    32 1   
     4     1    33 1   
     5     2     3 1   
     6     2    34 1   
     7     2    35 1   
     8     3     4 1   
     9     3     5 1   
    10     4    36 1   
    11     4    37 1   
    12     4    38 1   
    13     5     6 1   
    14     5    39 1   
    15     5    40 1   
    16     6     7 1   
    17     6    41 1   
    18     6    42 1   
    19     7     8 1   
    20     8     9 1   
    21     8    43 1   
    22     8    44 1   
    23     9    10 2   
    24     9    11 1   
    25    11    12 ar  
    26    11    13 ar  
    27    12    20 ar  
    28    12    45 1   
    29    13    14 ar  
    30    13    46 1   
    31    14    15 ar  
    32    14    47 1   
    33    15    16 1   
    34    15    20 ar  
    35    16    17 1   
    36    17    18 1   
    37    17    48 1   
    38    17    49 1   
    39    18    19 1   
    40    18    50 1   
    41    18    51 1   
    42    19    52 1   
    43    19    53 1   
    44    19    54 1   
    45    20    21 1   
    46    21    22 2   
    47    21    23 1   
    48    22    28 1   
    49    23    24 1   
    50    23    62 1   
    51    24    25 2   
    52    24    26 1   
    53    26    27 1   
    54    26    28 2   
    55    28    29 1   
    56    29    30 1   
    57    29    31 1   
    58    29    55 1   
    59    30    56 1   
    60    30    57 1   
    61    30    58 1   
    62    31    59 1   
    63    31    60 1   
    64    31    61 1   
@<TRIPOS>SUBSTRUCTURE
     1 5BA         1 TEMP              0 ****  ****    0 ROOT
