@<TRIPOS>MOLECULE
5BA
   62    64     1     0     0
SMALL
abcg2


@<TRIPOS>ATOM
      1 CAO         -5.9560     0.9230     1.1160 c6         1 5BA       0.165800
      2 CAM         -7.1180     1.8960     1.0870 c6         1 5BA       0.163800
      3 NBD         -8.3670     1.1960     0.8610 n3         1 5BA      -0.719600
      4 CAD         -9.4950     2.0980     0.8770 c3         1 5BA       0.153100
      5 CAN         -8.2990     0.4440    -0.3750 c6         1 5BA       0.163800
      6 CAP         -7.1360    -0.5290    -0.3480 c6         1 5BA       0.165800
      7 N           -5.8880     0.1810    -0.1310 n3         1 5BA      -0.704600
      8 CA          -4.7550    -0.7020    -0.1860 c3         1 5BA       0.075800
      9 C           -3.4450     0.0120    -0.4550 c          1 5BA       0.583700
     10 O           -3.3980     1.2020    -0.6800 o          1 5BA      -0.502100
     11 CAV         -2.2070    -0.8050    -0.4430 ca         1 5BA      -0.225600
     12 CAJ         -0.9740    -0.1640    -0.5530 ca         1 5BA       0.001000
     13 CAH         -2.2140    -2.1950    -0.3430 ca         1 5BA      -0.009000
     14 CAI         -1.0400    -2.9260    -0.3720 ca         1 5BA      -0.231000
     15 CAW          0.1910    -2.2790    -0.4840 ca         1 5BA       0.232100
     16 OAT          1.3580    -2.9060    -0.5630 os         1 5BA      -0.322100
     17 CAL          1.4010    -4.3310    -0.5370 c3         1 5BA       0.162600
     18 CAK          2.8460    -4.7590    -0.6700 c3         1 5BA      -0.082400
     19 CAA          2.9680    -6.2770    -0.6600 c3         1 5BA      -0.091100
     20 CAY          0.2150    -0.8710    -0.5520 ca         1 5BA      -0.218900
     21 CAZ          1.4940    -0.1390    -0.6140 cc         1 5BA       0.587500
     22 NAR          2.4330    -0.3770     0.2390 nd         1 5BA      -0.639300
     23 NAS          1.6070     0.8090    -1.5680 ns         1 5BA      -0.405400
     24 CBB          2.7130     1.6290    -1.7170 c          1 5BA       0.572200
     25 OAF          2.7530     2.4790    -2.5870 o          1 5BA      -0.519000
     26 CAX          3.7490     1.3270    -0.7560 cc         1 5BA      -0.243500
     27 BR           5.3000     2.3660    -0.9280 br         1 5BA      -0.037700
     28 CBA          3.5870     0.3410     0.1770 cd         1 5BA       0.240400
     29 CBC          4.6270    -0.0830     1.1790 c3         1 5BA      -0.018500
     30 CAC          4.0460    -0.1420     2.5900 c3         1 5BA      -0.081600
     31 CAB          5.1930    -1.4390     0.7520 c3         1 5BA      -0.081600
     32 H1          -5.0330     1.4820     1.2670 h1         1 5BA       0.039200
     33 H2          -6.0730     0.2420     1.9770 h1         1 5BA       0.039200
     34 H3          -7.1680     2.4210     2.0440 h1         1 5BA       0.040950
     35 H4          -6.9320     2.6570     0.3080 h1         1 5BA       0.040950
     36 H6          -9.4540     2.8560     0.0790 h1         1 5BA       0.030700
     37 H7         -10.4240     1.5380     0.7580 h1         1 5BA       0.030700
     38 H8          -9.5410     2.6230     1.8320 h1         1 5BA       0.030700
     39 H9          -9.2290    -0.1150    -0.5050 h1         1 5BA       0.040950
     40 H10         -8.1930     1.1090    -1.2510 h1         1 5BA       0.040950
     41 H11         -7.3150    -1.2880     0.4320 h1         1 5BA       0.039200
     42 H12         -7.0890    -1.0550    -1.3050 h1         1 5BA       0.039200
     43 H14         -4.6470    -1.3170     0.7240 h1         1 5BA       0.049700
     44 H15         -4.8990    -1.4170    -1.0040 h1         1 5BA       0.049700
     45 H16         -0.9470     0.9170    -0.6100 ha         1 5BA       0.142000
     46 H17         -3.1430    -2.7420    -0.2500 ha         1 5BA       0.117000
     47 H18         -1.1000    -4.0030    -0.3160 ha         1 5BA       0.127000
     48 H19          0.9750    -4.7020     0.4010 h1         1 5BA       0.039700
     49 H20          0.8050    -4.7380    -1.3620 h1         1 5BA       0.039700
     50 H21          3.2600    -4.3600    -1.5990 hc         1 5BA       0.060200
     51 H22          3.4290    -4.3340     0.1510 hc         1 5BA       0.060200
     52 H23          2.6020    -6.7020     0.2760 hc         1 5BA       0.038033
     53 H24          2.4000    -6.7280    -1.4750 hc         1 5BA       0.038033
     54 H25          4.0080    -6.5810    -0.7750 hc         1 5BA       0.038033
     55 H27          5.4450     0.6380     1.1840 hc         1 5BA       0.067700
     56 H28          3.2510    -0.8840     2.6630 hc         1 5BA       0.040533
     57 H29          4.8310    -0.4150     3.2960 hc         1 5BA       0.040533
     58 H30          3.6420     0.8230     2.8970 hc         1 5BA       0.040533
     59 H31          5.6390    -1.3940    -0.2420 hc         1 5BA       0.040533
     60 H32          5.9660    -1.7590     1.4520 hc         1 5BA       0.040533
     61 H33          4.4110    -2.1990     0.7400 hc         1 5BA       0.040533
     62 H5           0.8580     0.9350    -2.2390 hn         1 5BA       0.336500
@<TRIPOS>BOND
     1     1     2 1   
     2     1     7 1   
     3     1    32 1   
     4     1    33 1   
     5     2     3 1   
     6     2    34 1   
     7     2    35 1   
     8     3     4 1   
     9     3     5 1   
    10     4    36 1   
    11     4    37 1   
    12     4    38 1   
    13     5     6 1   
    14     5    39 1   
    15     5    40 1   
    16     6     7 1   
    17     6    41 1   
    18     6    42 1   
    19     7     8 1   
    20     8     9 1   
    21     8    43 1   
    22     8    44 1   
    23     9    10 2   
    24     9    11 1   
    25    11    12 ar  
    26    11    13 ar  
    27    12    20 ar  
    28    12    45 1   
    29    13    14 ar  
    30    13    46 1   
    31    14    15 ar  
    32    14    47 1   
    33    15    16 1   
    34    15    20 ar  
    35    16    17 1   
    36    17    18 1   
    37    17    48 1   
    38    17    49 1   
    39    18    19 1   
    40    18    50 1   
    41    18    51 1   
    42    19    52 1   
    43    19    53 1   
    44    19    54 1   
    45    20    21 1   
    46    21    22 2   
    47    21    23 1   
    48    22    28 1   
    49    23    24 1   
    50    23    62 1   
    51    24    25 2   
    52    24    26 1   
    53    26    27 1   
    54    26    28 2   
    55    28    29 1   
    56    29    30 1   
    57    29    31 1   
    58    29    55 1   
    59    30    56 1   
    60    30    57 1   
    61    30    58 1   
    62    31    59 1   
    63    31    60 1   
    64    31    61 1   
@<TRIPOS>SUBSTRUCTURE
     1 5BA         1 TEMP              0 ****  ****    0 ROOT
