@<TRIPOS>MOLECULE
5BB
   72    74     1     0     0
SMALL
No Charge or Current Charge


@<TRIPOS>ATOM
      1 CAU         -7.3660    -0.5230     0.7520 c6         1 5BB       0.189300
      2 CAS         -8.4170     0.0080    -0.2710 c6         1 5BB       0.162800
      3 NBG         -7.9850    -0.2030    -1.6860 n3         1 5BB      -0.717600
      4 CAC         -8.9860     0.2670    -2.6670 c3         1 5BB       0.152100
      5 CAT         -6.6350     0.4010    -1.9020 c6         1 5BB       0.162800
      6 CAV         -5.5780    -0.1240    -0.8810 c6         1 5BB       0.189300
      7 NBH         -6.0150     0.0670     0.5340 n3         1 5BB      -0.712500
      8 SBI         -4.8750    -0.3670     1.7160 sy         1 5BB       1.157600
      9 OAE         -5.3140     0.2880     2.9530 o          1 5BB      -0.532500
     10 OAF         -4.6790    -1.8170     1.6250 o          1 5BB      -0.532500
     11 CAZ         -3.3980     0.4880     1.1560 ca         1 5BB      -0.360500
     12 CAJ         -2.3090    -0.2340     0.6350 ca         1 5BB       0.048000
     13 CAH         -3.3420     1.8890     1.2390 ca         1 5BB       0.051000
     14 CAI         -2.1960     2.5680     0.8000 ca         1 5BB      -0.237000
     15 CBA         -1.0980     1.8520     0.2770 ca         1 5BB       0.253100
     16 OAY          0.0300     2.4970    -0.1920 os         1 5BB      -0.325100
     17 CAL          0.2050     3.9190    -0.1040 c3         1 5BB       0.164600
     18 CAB          1.5920     4.2440    -0.6810 c3         1 5BB      -0.097100
     19 CBD         -1.1570     0.4460     0.1910 ca         1 5BB      -0.226900
     20 CBE         -0.0280    -0.3140    -0.3250 cc         1 5BB       0.583500
     21 NAW          1.1710    -0.2170     0.2420 nd         1 5BB      -0.635300
     22 NAX         -0.3040    -1.1060    -1.3910 ns         1 5BB      -0.403400
     23 CBF          0.6030    -1.8700    -2.0210 c          1 5BB       0.574200
     24 OAD          0.3050    -2.5590    -2.9840 o          1 5BB      -0.519000
     25 CBC          1.9380    -1.7650    -1.4300 cc         1 5BB      -0.242500
     26 Br           3.2740    -2.8010    -2.2980 br         1 5BB      -0.033700
     27 CBB          2.2060    -0.9620    -0.3310 cd         1 5BB       0.238400
     28 CAR          3.5690    -0.8080     0.3040 c3         1 5BB      -0.039200
     29 CAQ          4.4040     0.3110    -0.3590 c3         1 5BB      -0.069400
     30 CAP          5.7990     0.4900     0.2800 c3         1 5BB      -0.075400
     31 CAO          6.6250     1.6130    -0.3840 c3         1 5BB      -0.073400
     32 CAN          8.0200     1.7950     0.2540 c3         1 5BB      -0.075400
     33 CAM          8.8450     2.9190    -0.4100 c3         1 5BB      -0.075400
     34 CAK         10.2400     3.1010     0.2280 c3         1 5BB      -0.075400
     35 CAA         11.0640     4.2220    -0.4340 c3         1 5BB      -0.088100
     36 H1          -7.7280    -0.2950     1.7650 h1         1 5BB       0.059450
     37 H2          -7.3210    -1.6190     0.6660 h1         1 5BB       0.059450
     38 H3          -9.3750    -0.4980    -0.0840 h1         1 5BB       0.046200
     39 H4          -8.5770     1.0800    -0.0800 h1         1 5BB       0.046200
     40 H6          -9.1440     1.3500    -2.5790 h1         1 5BB       0.034367
     41 H7          -8.6570     0.0500    -3.6910 h1         1 5BB       0.034367
     42 H8          -9.9500    -0.2350    -2.5080 h1         1 5BB       0.034367
     43 H9          -6.2780     0.1830    -2.9190 h1         1 5BB       0.046200
     44 H10         -6.6920     1.4960    -1.8090 h1         1 5BB       0.046200
     45 H11         -5.3980    -1.1910    -1.0820 h1         1 5BB       0.059450
     46 H12         -4.6360     0.4040    -1.0810 h1         1 5BB       0.059450
     47 H13         -2.3480    -1.3230     0.5820 ha         1 5BB       0.145000
     48 H14         -4.1860     2.4540     1.6360 ha         1 5BB       0.136000
     49 H15         -2.1830     3.6510     0.8680 ha         1 5BB       0.129000
     50 H16         -0.5660     4.4450    -0.6820 h1         1 5BB       0.042200
     51 H17          0.1560     4.2540     0.9400 h1         1 5BB       0.042200
     52 H18          1.7790     5.3230    -0.6340 hc         1 5BB       0.054033
     53 H19          2.3770     3.7330    -0.1110 hc         1 5BB       0.054033
     54 H20          1.6580     3.9290    -1.7290 hc         1 5BB       0.054033
     55 H21         -1.2400    -1.1160    -1.7650 hn         1 5BB       0.332500
     56 H22          3.4550    -0.5790     1.3710 hc         1 5BB       0.069700
     57 H23          4.1220    -1.7530     0.2640 hc         1 5BB       0.069700
     58 H24          4.5220     0.0860    -1.4270 hc         1 5BB       0.047700
     59 H25          5.6800     0.7130     1.3480 hc         1 5BB       0.040200
     60 H26          6.7440     1.3900    -1.4520 hc         1 5BB       0.037200
     61 H27          7.9010     2.0180     1.3220 hc         1 5BB       0.037700
     62 H28          8.9640     2.6960    -1.4780 hc         1 5BB       0.036700
     63 H29          8.2910     3.8630    -0.3390 hc         1 5BB       0.036700
     64 H30         10.1260     3.3250     1.2950 hc         1 5BB       0.037200
     65 H31         10.7980     2.1590     0.1570 hc         1 5BB       0.037200
     66 H32         11.2270     4.0080    -1.4970 hc         1 5BB       0.031367
     67 H33         10.5480     5.1860    -0.3480 hc         1 5BB       0.031367
     68 H34         12.0440     4.3130     0.0510 hc         1 5BB       0.031367
     69 H5           3.8520     1.2560    -0.2920 hc         1 5BB       0.047700
     70 H35          6.3520    -0.4550     0.2090 hc         1 5BB       0.040200
     71 H36          6.0710     2.5570    -0.3140 hc         1 5BB       0.037200
     72 H37          8.5740     0.8500     0.1830 hc         1 5BB       0.037700
@<TRIPOS>BOND
     1     1     2 1   
     2     1     7 1   
     3     1    36 1   
     4     1    37 1   
     5     2     3 1   
     6     2    38 1   
     7     2    39 1   
     8     3     4 1   
     9     3     5 1   
    10     4    40 1   
    11     4    41 1   
    12     4    42 1   
    13     5     6 1   
    14     5    43 1   
    15     5    44 1   
    16     6     7 1   
    17     6    45 1   
    18     6    46 1   
    19     7     8 1   
    20     8     9 2   
    21     8    10 2   
    22     8    11 1   
    23    11    12 ar  
    24    11    13 ar  
    25    12    19 ar  
    26    12    47 1   
    27    13    14 ar  
    28    13    48 1   
    29    14    15 ar  
    30    14    49 1   
    31    15    16 1   
    32    15    19 ar  
    33    16    17 1   
    34    17    18 1   
    35    17    50 1   
    36    17    51 1   
    37    18    52 1   
    38    18    53 1   
    39    18    54 1   
    40    19    20 1   
    41    20    21 2   
    42    20    22 1   
    43    21    27 1   
    44    22    23 1   
    45    22    55 1   
    46    23    24 2   
    47    23    25 1   
    48    25    26 1   
    49    25    27 2   
    50    27    28 1   
    51    28    29 1   
    52    28    56 1   
    53    28    57 1   
    54    29    30 1   
    55    29    58 1   
    56    29    69 1   
    57    30    31 1   
    58    30    59 1   
    59    30    70 1   
    60    31    32 1   
    61    31    60 1   
    62    31    71 1   
    63    32    33 1   
    64    32    61 1   
    65    32    72 1   
    66    33    34 1   
    67    33    62 1   
    68    33    63 1   
    69    34    35 1   
    70    34    64 1   
    71    34    65 1   
    72    35    66 1   
    73    35    67 1   
    74    35    68 1   
@<TRIPOS>SUBSTRUCTURE
     1 5BB         1 TEMP              0 ****  ****    0 ROOT
