@<TRIPOS>MOLECULE
5BB
   72    74     1     0     0
SMALL
bcc


@<TRIPOS>ATOM
      1 CAU         -5.6140    -0.7170    -0.4930 c6         1 5BB       0.189300
      2 CAS         -6.8670    -0.9570    -1.3130 c6         1 5BB       0.162800
      3 NBG         -7.4130     0.2920    -1.7980 n3         1 5BB      -0.717600
      4 CAC         -8.5610     0.0730    -2.6500 c3         1 5BB       0.152100
      5 CAT         -7.7310     1.1650    -0.6870 c6         1 5BB       0.162800
      6 CAV         -6.4960     1.4540     0.1450 c6         1 5BB       0.189300
      7 NBH         -5.9380     0.1850     0.6150 n3         1 5BB      -0.712500
      8 SBI         -4.8490     0.2550     1.8560 sy         1 5BB       1.299200
      9 OAE         -5.3790     1.1920     2.8330 o          1 5BB      -0.603300
     10 OAF         -4.5690    -1.1170     2.2490 o          1 5BB      -0.603300
     11 CAZ         -3.3600     0.9380     1.1980 ca         1 5BB      -0.360500
     12 CAJ         -2.3680     0.0900     0.7200 ca         1 5BB       0.030000
     13 CAH         -3.1890     2.3140     1.1400 ca         1 5BB       0.033000
     14 CAI         -2.0370     2.8510     0.5930 ca         1 5BB      -0.255000
     15 CBA         -1.0330     2.0110     0.1070 ca         1 5BB       0.253100
     16 OAY          0.0890     2.4340    -0.4580 os         1 5BB      -0.301900
     17 CAL          0.3540     3.8340    -0.5630 c3         1 5BB       0.141400
     18 CAB          1.6800     3.9970    -1.2630 c3         1 5BB      -0.097100
     19 CBD         -1.2040     0.6180     0.1910 ca         1 5BB      -0.226900
     20 CBE         -0.1280    -0.2890    -0.2550 cc         1 5BB       0.583500
     21 NAW          1.0440    -0.2160     0.2830 nd         1 5BB      -0.635300
     22 NAX         -0.4430    -1.1970    -1.2000 ns         1 5BB      -0.470400
     23 CBF          0.4450    -2.1430    -1.6890 c          1 5BB       0.716700
     24 OAD          0.1040    -2.9440    -2.5390 o          1 5BB      -0.594500
     25 CBC          1.7480    -2.0270    -1.0810 cc         1 5BB      -0.242500
     26 BR           3.0330    -3.2360    -1.7080 br         1 5BB      -0.033700
     27 CBB          2.0100    -1.0860    -0.1260 cd         1 5BB       0.238400
     28 CAR          3.3410    -0.8780     0.5210 c3         1 5BB      -0.039200
     29 CAQ          4.1910     0.1260    -0.2650 c3         1 5BB      -0.069400
     30 CAP          5.5040     0.4330     0.4430 c3         1 5BB      -0.075400
     31 CAO          6.4070     1.3690    -0.3510 c3         1 5BB      -0.073400
     32 CAN          7.7050     1.7000     0.3760 c3         1 5BB      -0.075400
     33 CAM          8.6390     2.5910    -0.4330 c3         1 5BB      -0.075400
     34 CAK          9.9330     2.9280     0.2980 c3         1 5BB      -0.075400
     35 CAA         10.8640     3.8060    -0.5250 c3         1 5BB      -0.088100
     36 H1          -5.2550    -1.6690    -0.1070 h1         1 5BB       0.059450
     37 H2          -4.8350    -0.2810    -1.1310 h1         1 5BB       0.059450
     38 H3          -6.6010    -1.5900    -2.1620 h1         1 5BB       0.046200
     39 H4          -7.5950    -1.5170    -0.7020 h1         1 5BB       0.046200
     40 H6          -9.3970    -0.4190    -2.1310 h1         1 5BB       0.034367
     41 H7          -8.9230     1.0250    -3.0410 h1         1 5BB       0.034367
     42 H8          -8.2800    -0.5520    -3.4990 h1         1 5BB       0.034367
     43 H9          -8.1130     2.1130    -1.0700 h1         1 5BB       0.046200
     44 H10         -8.5100     0.7340    -0.0360 h1         1 5BB       0.046200
     45 H11         -5.7640     2.0050    -0.4610 h1         1 5BB       0.059450
     46 H12         -6.7790     2.0710     0.9940 h1         1 5BB       0.059450
     47 H13         -2.4830    -0.9840     0.7920 ha         1 5BB       0.163000
     48 H14         -3.9460     2.9850     1.5250 ha         1 5BB       0.154000
     49 H15         -1.9330     3.9250     0.5530 ha         1 5BB       0.147000
     50 H16         -0.4440     4.3240    -1.1290 h1         1 5BB       0.042200
     51 H17          0.3830     4.2790     0.4360 h1         1 5BB       0.042200
     52 H18          1.9220     5.0570    -1.3290 hc         1 5BB       0.054033
     53 H19          2.4840     3.5020    -0.7170 hc         1 5BB       0.054033
     54 H20          1.6470     3.5960    -2.2760 hc         1 5BB       0.054033
     55 H21         -1.3700    -1.1890    -1.6070 hn         1 5BB       0.332500
     56 H22          3.1630    -0.4900     1.5260 hc         1 5BB       0.069700
     57 H23          3.8850    -1.8170     0.6280 hc         1 5BB       0.069700
     58 H24          4.3940    -0.2690    -1.2650 hc         1 5BB       0.047700
     59 H25          5.2910     0.8740     1.4230 hc         1 5BB       0.040200
     60 H26          6.6380     0.9120    -1.3190 hc         1 5BB       0.037200
     61 H27          7.4720     2.1870     1.3290 hc         1 5BB       0.037700
     62 H28          8.8780     2.0980    -1.3820 hc         1 5BB       0.036700
     63 H29          8.1200     3.5190    -0.6980 hc         1 5BB       0.036700
     64 H30          9.6950     3.4280     1.2420 hc         1 5BB       0.037200
     65 H31         10.4460     2.0000     0.5700 hc         1 5BB       0.037200
     66 H32         11.1370     3.3180    -1.4630 hc         1 5BB       0.031367
     67 H33         10.3890     4.7560    -0.7770 hc         1 5BB       0.031367
     68 H34         11.7870     4.0300     0.0110 hc         1 5BB       0.031367
     69 H5           3.6230     1.0510    -0.4050 hc         1 5BB       0.047700
     70 H35          6.0370    -0.5030     0.6390 hc         1 5BB       0.040200
     71 H36          5.8690     2.2970    -0.5740 hc         1 5BB       0.037200
     72 H37          8.2230     0.7690     0.6320 hc         1 5BB       0.037700
@<TRIPOS>BOND
     1     1     2 1   
     2     1     7 1   
     3     1    36 1   
     4     1    37 1   
     5     2     3 1   
     6     2    38 1   
     7     2    39 1   
     8     3     4 1   
     9     3     5 1   
    10     4    40 1   
    11     4    41 1   
    12     4    42 1   
    13     5     6 1   
    14     5    43 1   
    15     5    44 1   
    16     6     7 1   
    17     6    45 1   
    18     6    46 1   
    19     7     8 1   
    20     8     9 2   
    21     8    10 2   
    22     8    11 1   
    23    11    12 ar  
    24    11    13 ar  
    25    12    19 ar  
    26    12    47 1   
    27    13    14 ar  
    28    13    48 1   
    29    14    15 ar  
    30    14    49 1   
    31    15    16 1   
    32    15    19 ar  
    33    16    17 1   
    34    17    18 1   
    35    17    50 1   
    36    17    51 1   
    37    18    52 1   
    38    18    53 1   
    39    18    54 1   
    40    19    20 1   
    41    20    21 2   
    42    20    22 1   
    43    21    27 1   
    44    22    23 1   
    45    22    55 1   
    46    23    24 2   
    47    23    25 1   
    48    25    26 1   
    49    25    27 2   
    50    27    28 1   
    51    28    29 1   
    52    28    56 1   
    53    28    57 1   
    54    29    30 1   
    55    29    58 1   
    56    29    69 1   
    57    30    31 1   
    58    30    59 1   
    59    30    70 1   
    60    31    32 1   
    61    31    60 1   
    62    31    71 1   
    63    32    33 1   
    64    32    61 1   
    65    32    72 1   
    66    33    34 1   
    67    33    62 1   
    68    33    63 1   
    69    34    35 1   
    70    34    64 1   
    71    34    65 1   
    72    35    66 1   
    73    35    67 1   
    74    35    68 1   
@<TRIPOS>SUBSTRUCTURE
     1 5BB         1 TEMP              0 ****  ****    0 ROOT
