@<TRIPOS>MOLECULE
5BC
   73    77     1     0     0
SMALL
No Charge or Current Charge


@<TRIPOS>ATOM
      1 C1           8.3600    -3.1850     0.3030 cp         1 5BC      -0.038000
      2 C2           8.3890    -3.7140     1.6190 ca         1 5BC      -0.097000
      3 C3           9.0270    -4.9350     1.8990 ca         1 5BC      -0.112000
      4 C4           9.6490    -5.6560     0.8680 ca         1 5BC      -0.107000
      5 C5           9.6340    -5.1530    -0.4430 ca         1 5BC      -0.112000
      6 C6           8.9970    -3.9320    -0.7220 ca         1 5BC      -0.097000
      7 C7           6.3800     0.5950    -0.5730 ca         1 5BC      -0.162600
      8 C8           7.5570     0.2240    -1.2570 ca         1 5BC      -0.069500
      9 C9           8.1910    -0.9980    -0.9760 ca         1 5BC      -0.114000
     10 C10          7.6810    -1.8830     0.0050 cp         1 5BC      -0.015000
     11 C11          6.5090    -1.4910     0.6970 ca         1 5BC      -0.114000
     12 C12          5.8700    -0.2710     0.4180 ca         1 5BC      -0.069500
     13 C13          4.2180     2.0460    -0.7300 ca         1 5BC      -0.218600
     14 C14          1.4120     2.3300    -0.4780 ca         1 5BC       0.185100
     15 C15          2.2590     3.4310    -0.2210 ca         1 5BC      -0.125300
     16 C16          3.6540     3.2820    -0.3520 ca         1 5BC      -0.026000
     17 C17          3.3640     0.9590    -1.0050 ca         1 5BC      -0.031000
     18 C18          1.9740     1.0980    -0.8750 ca         1 5BC      -0.220000
     19 C19         -5.8550     0.8770    -0.2940 ca         1 5BC       0.084100
     20 C20         -8.2540     0.8970    -0.0920 ca         1 5BC      -0.066800
     21 C21         -8.3280    -0.4220    -0.4470 ca         1 5BC      -0.056200
     22 C22         -7.1690    -1.1580    -0.7430 ca         1 5BC      -0.054000
     23 C23         -5.9220    -0.4960    -0.6640 ca         1 5BC      -0.199000
     24 C24         -7.0400     1.5860    -0.0020 ca         1 5BC      -0.113000
     25 C25        -10.4940     0.2700    -0.0800 cc         1 5BC      -0.129100
     26 N26         -9.6650    -0.8110    -0.4450 na         1 5BC      -0.015700
     27 C27         -9.6110     1.3200     0.1360 cd         1 5BC      -0.297200
     28 C28        -10.0030    -3.1610     0.3670 c          1 5BC       0.711000
     29 O29         -9.0620    -3.9420     0.3920 o          1 5BC      -0.708500
     30 O30        -10.8900    -3.1450     1.2090 o          1 5BC      -0.708500
     31 C31        -10.0970    -2.1720    -0.8050 c3         1 5BC      -0.096400
     32 O32         -4.6600     1.5600    -0.2050 os         1 5BC      -0.363100
     33 C33         -3.3960     0.9320    -0.4820 c3         1 5BC       0.176600
     34 C34         -2.2960     1.9880    -0.2830 c3         1 5BC      -0.088400
     35 C35         -0.8880     1.4300    -0.5530 c3         1 5BC       0.161600
     36 O36          0.0480     2.4970    -0.3350 os         1 5BC      -0.340100
     37 O38          6.3850     2.8820    -1.2380 o          1 5BC      -0.529100
     38 C39          1.6890     4.7820     0.2080 c3         1 5BC      -0.018100
     39 C40          1.3950     4.8370     1.7220 c3         1 5BC      -0.073400
     40 C41          0.8200     6.1920     2.1800 c3         1 5BC      -0.088100
     41 H2           7.9250    -3.1660     2.4350 ha         1 5BC       0.115000
     42 H3           9.0400    -5.3210     2.9160 ha         1 5BC       0.112500
     43 H4          10.1430    -6.6010     1.0840 ha         1 5BC       0.111000
     44 H5          10.1130    -5.7110    -1.2450 ha         1 5BC       0.112500
     45 H6           8.9860    -3.5680    -1.7460 ha         1 5BC       0.115000
     46 H8           7.9800     0.8820    -2.0140 ha         1 5BC       0.126000
     47 H9           9.1000    -1.2520    -1.5160 ha         1 5BC       0.117000
     48 H11          6.0830    -2.1430     1.4550 ha         1 5BC       0.117000
     49 H12          4.9820     0.0010     0.9860 ha         1 5BC       0.126000
     50 H16          4.3040     4.1310    -0.1480 ha         1 5BC       0.128000
     51 H17          3.7720     0.0040    -1.3320 ha         1 5BC       0.118000
     52 H18          1.3480     0.2370    -1.0910 ha         1 5BC       0.124000
     53 H22         -7.2220    -2.2070    -1.0230 ha         1 5BC       0.123000
     54 H23         -5.0240    -1.0620    -0.8920 ha         1 5BC       0.095000
     55 H24         -7.0090     2.6340     0.2820 ha         1 5BC       0.109000
     56 H25        -11.5740     0.1990    -0.0110 h4         1 5BC       0.201000
     57 H27         -9.9100     2.3210     0.4360 ha         1 5BC       0.185000
     58 H31        -11.1390    -2.1360    -1.1430 h1         1 5BC       0.039200
     59 H31A        -9.4860    -2.5410    -1.6380 h1         1 5BC       0.039200
     60 H33         -3.2240     0.0900     0.2020 h1         1 5BC       0.027700
     61 H33A        -3.3660     0.5600    -1.5140 h1         1 5BC       0.027700
     62 H34         -2.4830     2.8340    -0.9560 hc         1 5BC       0.067200
     63 H34A        -2.3420     2.3680     0.7440 hc         1 5BC       0.067200
     64 H35         -0.6890     0.5930     0.1300 h1         1 5BC       0.036200
     65 H35A        -0.8290     1.0660    -1.5870 h1         1 5BC       0.036200
     66 H39          2.3900     5.5870    -0.0480 hc         1 5BC       0.048700
     67 H39A         0.7690     5.0020    -0.3480 hc         1 5BC       0.048700
     68 H40          0.6860     4.0430     1.9840 hc         1 5BC       0.043200
     69 H40A         2.3200     4.6350     2.2770 hc         1 5BC       0.043200
     70 H41          0.6300     6.1810     3.2600 hc         1 5BC       0.030367
     71 H41A         1.5240     7.0050     1.9640 hc         1 5BC       0.030367
     72 H41B        -0.1250     6.4050     1.6670 hc         1 5BC       0.030367
     73 C37          5.7160     1.9200    -0.8770 c          1 5BC       0.603300
@<TRIPOS>BOND
     1     1     2 ar  
     2     1     6 ar  
     3     1    10 1   
     4     2     3 ar  
     5     2    41 1   
     6     3     4 ar  
     7     3    42 1   
     8     4     5 ar  
     9     4    43 1   
    10     5     6 ar  
    11     5    44 1   
    12     6    45 1   
    13     7     8 ar  
    14     7    12 ar  
    15     7    73 1   
    16     8     9 ar  
    17     8    46 1   
    18     9    10 ar  
    19     9    47 1   
    20    10    11 ar  
    21    11    12 ar  
    22    11    48 1   
    23    12    49 1   
    24    13    16 ar  
    25    13    17 ar  
    26    13    73 1   
    27    14    15 ar  
    28    14    18 ar  
    29    14    36 1   
    30    15    16 ar  
    31    15    38 1   
    32    16    50 1   
    33    17    18 ar  
    34    17    51 1   
    35    18    52 1   
    36    19    23 ar  
    37    19    24 ar  
    38    19    32 1   
    39    20    21 ar  
    40    20    24 ar  
    41    20    27 1   
    42    21    22 ar  
    43    21    26 1   
    44    22    23 ar  
    45    22    53 1   
    46    23    54 1   
    47    24    55 1   
    48    25    26 1   
    49    25    27 2   
    50    25    56 1   
    51    26    31 1   
    52    27    57 1   
    53    28    29 1   
    54    28    30 1   
    55    28    31 1   
    56    31    58 1   
    57    31    59 1   
    58    32    33 1   
    59    33    34 1   
    60    33    60 1   
    61    33    61 1   
    62    34    35 1   
    63    34    62 1   
    64    34    63 1   
    65    35    36 1   
    66    35    64 1   
    67    35    65 1   
    68    37    73 2   
    69    38    39 1   
    70    38    66 1   
    71    38    67 1   
    72    39    40 1   
    73    39    68 1   
    74    39    69 1   
    75    40    70 1   
    76    40    71 1   
    77    40    72 1   
@<TRIPOS>SUBSTRUCTURE
     1 5BC         1 TEMP              0 ****  ****    0 ROOT
