@<TRIPOS>MOLECULE
5BC
   73    77     1     0     0
SMALL
bcc


@<TRIPOS>ATOM
      1 C1           8.2780    -3.1840     0.2580 cp         1 5BC      -0.038000
      2 C2           8.4850    -3.6200     1.5680 ca         1 5BC      -0.115000
      3 C3           9.1490    -4.8100     1.8230 ca         1 5BC      -0.130000
      4 C4           9.6160    -5.5880     0.7720 ca         1 5BC      -0.125000
      5 C5           9.4170    -5.1660    -0.5350 ca         1 5BC      -0.130000
      6 C6           8.7550    -3.9740    -0.7890 ca         1 5BC      -0.115000
      7 C7           6.1970     0.4780    -0.5360 ca         1 5BC      -0.162600
      8 C8           7.3090     0.1140    -1.2940 ca         1 5BC      -0.087500
      9 C9           7.9710    -1.0740    -1.0480 ca         1 5BC      -0.132000
     10 C10          7.5660    -1.9210    -0.0130 cp         1 5BC      -0.015000
     11 C11          6.4690    -1.5400     0.7590 ca         1 5BC      -0.132000
     12 C12          5.7880    -0.3630     0.4960 ca         1 5BC      -0.087500
     13 C13          4.0800     1.9240    -0.6060 ca         1 5BC      -0.218600
     14 C14          1.3230     2.3060    -0.3570 ca         1 5BC       0.185100
     15 C15          2.1890     3.4050    -0.1990 ca         1 5BC      -0.125300
     16 C16          3.5450     3.1890    -0.3440 ca         1 5BC      -0.044000
     17 C17          3.2040     0.8570    -0.7550 ca         1 5BC      -0.049000
     18 C18          1.8340     1.0420    -0.6410 ca         1 5BC      -0.238000
     19 C19         -5.7550     0.9250    -0.1930 ca         1 5BC       0.084100
     20 C20         -8.1500     0.9000    -0.0800 ca         1 5BC      -0.066800
     21 C21         -8.1400    -0.4430    -0.5210 ca         1 5BC      -0.056200
     22 C22         -6.9480    -1.1070    -0.7780 ca         1 5BC      -0.072000
     23 C23         -5.7590    -0.4180    -0.6120 ca         1 5BC      -0.217000
     24 C24         -6.9430     1.5830     0.0800 ca         1 5BC      -0.131000
     25 C25        -10.2520     0.1510    -0.2410 cc         1 5BC      -0.079100
     26 N26         -9.4360    -0.8650    -0.6320 na         1 5BC       0.013600
     27 C27         -9.5210     1.2550     0.0990 cd         1 5BC      -0.247200
     28 C28         -9.7380    -3.2270     0.1760 c          1 5BC       0.921600
     29 O29        -10.0160    -4.3950    -0.1590 o          1 5BC      -0.813800
     30 O30         -9.4040    -2.8040     1.2900 o          1 5BC      -0.813800
     31 C31         -9.8470    -2.1990    -0.9760 c3         1 5BC      -0.125700
     32 O32         -4.6190     1.6530    -0.0300 os         1 5BC      -0.339900
     33 C33         -3.3730     1.0470    -0.2850 c3         1 5BC       0.153400
     34 C34         -2.3030     2.1080    -0.1180 c3         1 5BC      -0.088400
     35 C35         -0.9250     1.5210    -0.3500 c3         1 5BC       0.138400
     36 O36          0.0150     2.5670    -0.2200 os         1 5BC      -0.316900
     37 O38          6.2120     2.7360    -1.1640 o          1 5BC      -0.529100
     38 C39          1.6610     4.7660     0.1560 c3         1 5BC      -0.018100
     39 C40          1.3230     4.9030     1.6420 c3         1 5BC      -0.073400
     40 C41          0.8460     6.3030     1.9980 c3         1 5BC      -0.088100
     41 H2           8.1450    -3.0140     2.3990 ha         1 5BC       0.133000
     42 H3           9.3050    -5.1280     2.8450 ha         1 5BC       0.130500
     43 H4          10.1320    -6.5180     0.9720 ha         1 5BC       0.129000
     44 H5           9.7680    -5.7700    -1.3610 ha         1 5BC       0.130500
     45 H6           8.5880    -3.6690    -1.8150 ha         1 5BC       0.133000
     46 H8           7.6560     0.7650    -2.0860 ha         1 5BC       0.144000
     47 H9           8.8330    -1.3310    -1.6500 ha         1 5BC       0.135000
     48 H11          6.1250    -2.1770     1.5630 ha         1 5BC       0.135000
     49 H12          4.9420    -0.0970     1.1160 ha         1 5BC       0.144000
     50 H16          4.2200     4.0300    -0.2390 ha         1 5BC       0.146000
     51 H17          3.5720    -0.1330    -0.9910 ha         1 5BC       0.136000
     52 H18          1.1850     0.1900    -0.7800 ha         1 5BC       0.142000
     53 H22         -6.9270    -2.1410    -1.0960 ha         1 5BC       0.141000
     54 H23         -4.8340    -0.9410    -0.8110 ha         1 5BC       0.113000
     55 H24         -6.9240     2.6150     0.4090 ha         1 5BC       0.127000
     56 H25        -11.3230     0.0180    -0.2400 h4         1 5BC       0.151000
     57 H27         -9.9150     2.2030     0.4260 ha         1 5BC       0.135000
     58 H31        -10.8820    -2.1580    -1.3220 h1         1 5BC       0.039200
     59 H31A        -9.2630    -2.5440    -1.8320 h1         1 5BC       0.039200
     60 H33         -3.1970     0.2140     0.4070 h1         1 5BC       0.027700
     61 H33A        -3.3390     0.6380    -1.3020 h1         1 5BC       0.027700
     62 H34         -2.4790     2.9180    -0.8290 hc         1 5BC       0.067200
     63 H34A        -2.3530     2.5290     0.8880 hc         1 5BC       0.067200
     64 H35         -0.7210     0.7300     0.3820 h1         1 5BC       0.036200
     65 H35A        -0.8620     1.0720    -1.3490 h1         1 5BC       0.036200
     66 H39          2.4170     5.5120    -0.1050 hc         1 5BC       0.048700
     67 H39A         0.7770     5.0080    -0.4400 hc         1 5BC       0.048700
     68 H40          0.5560     4.1730     1.9110 hc         1 5BC       0.043200
     69 H40A         2.2070     4.6510     2.2330 hc         1 5BC       0.043200
     70 H41          0.6010     6.3810     3.0580 hc         1 5BC       0.030367
     71 H41A         1.6110     7.0500     1.7810 hc         1 5BC       0.030367
     72 H41B        -0.0470     6.5740     1.4330 hc         1 5BC       0.030367
     73 C37          5.5430     1.7920    -0.7980 c          1 5BC       0.603300
@<TRIPOS>BOND
     1     1     2 ar  
     2     1     6 ar  
     3     1    10 1   
     4     2     3 ar  
     5     2    41 1   
     6     3     4 ar  
     7     3    42 1   
     8     4     5 ar  
     9     4    43 1   
    10     5     6 ar  
    11     5    44 1   
    12     6    45 1   
    13     7     8 ar  
    14     7    12 ar  
    15     7    73 1   
    16     8     9 ar  
    17     8    46 1   
    18     9    10 ar  
    19     9    47 1   
    20    10    11 ar  
    21    11    12 ar  
    22    11    48 1   
    23    12    49 1   
    24    13    16 ar  
    25    13    17 ar  
    26    13    73 1   
    27    14    15 ar  
    28    14    18 ar  
    29    14    36 1   
    30    15    16 ar  
    31    15    38 1   
    32    16    50 1   
    33    17    18 ar  
    34    17    51 1   
    35    18    52 1   
    36    19    23 ar  
    37    19    24 ar  
    38    19    32 1   
    39    20    21 ar  
    40    20    24 ar  
    41    20    27 1   
    42    21    22 ar  
    43    21    26 1   
    44    22    23 ar  
    45    22    53 1   
    46    23    54 1   
    47    24    55 1   
    48    25    26 1   
    49    25    27 2   
    50    25    56 1   
    51    26    31 1   
    52    27    57 1   
    53    28    29 1   
    54    28    30 1   
    55    28    31 1   
    56    31    58 1   
    57    31    59 1   
    58    32    33 1   
    59    33    34 1   
    60    33    60 1   
    61    33    61 1   
    62    34    35 1   
    63    34    62 1   
    64    34    63 1   
    65    35    36 1   
    66    35    64 1   
    67    35    65 1   
    68    37    73 2   
    69    38    39 1   
    70    38    66 1   
    71    38    67 1   
    72    39    40 1   
    73    39    68 1   
    74    39    69 1   
    75    40    70 1   
    76    40    71 1   
    77    40    72 1   
@<TRIPOS>SUBSTRUCTURE
     1 5BC         1 TEMP              0 ****  ****    0 ROOT
