@<TRIPOS>MOLECULE
5BD
   54    56     1     0     0
SMALL
bcc


@<TRIPOS>ATOM
      1 C1          -2.5050    -2.9280     0.1210 ca         1 5BD      -0.052000
      2 C2          -3.6940    -2.2350     0.0740 ca         1 5BD      -0.189500
      3 C3          -3.7080    -0.8390    -0.0390 ca         1 5BD       0.096100
      4 C5           2.4370    -0.1490    -0.0960 ca         1 5BD      -0.120000
      5 C6           3.6540    -0.8290    -0.0350 ca         1 5BD       0.096100
      6 C7           3.6430    -2.2250     0.0770 ca         1 5BD      -0.189500
      7 C8           2.4550    -2.9210     0.1230 ca         1 5BD      -0.052000
      8 C9          -5.2650     1.0900    -0.2550 c          1 5BD       0.667100
      9 C11         -1.2870    -2.2540     0.0590 ca         1 5BD      -0.168100
     10 C12         -1.2990    -0.8620    -0.0520 ca         1 5BD      -0.097600
     11 C13         -0.0280    -0.0950    -0.1160 c          1 5BD       0.580300
     12 C14         -0.0250    -3.0150     0.1140 c          1 5BD       0.603300
     13 O1          -4.4420     1.9720    -0.3800 o          1 5BD      -0.531600
     14 N1          -4.9520    -0.2260    -0.0710 ns         1 5BD      -0.482600
     15 C4          -2.4940    -0.1550    -0.1020 ca         1 5BD      -0.120000
     16 O2          -0.0300     1.1140    -0.2180 o          1 5BD      -0.489100
     17 O3          -0.0230    -4.2290     0.2020 o          1 5BD      -0.530100
     18 C15          1.2360    -2.2510     0.0610 ca         1 5BD      -0.168100
     19 C16          1.2440    -0.8590    -0.0490 ca         1 5BD      -0.097600
     20 N2           4.8960    -0.2130    -0.0700 ns         1 5BD      -0.482600
     21 C10          5.2020     1.1080    -0.2240 c          1 5BD       0.667100
     22 O4           4.3740     1.9900    -0.3070 o          1 5BD      -0.531600
     23 H1          -2.5240    -4.0050     0.2060 ha         1 5BD       0.154000
     24 H2          -4.6290    -2.7790     0.1250 ha         1 5BD       0.132000
     25 H5           2.4090     0.9240    -0.1770 ha         1 5BD       0.191000
     26 H7           4.5790    -2.7680     0.1300 ha         1 5BD       0.132000
     27 H8           2.4770    -3.9990     0.2070 ha         1 5BD       0.154000
     28 C17         -6.7650     1.3300    -0.3290 c3         1 5BD       0.088800
     29 H4          -2.4690     0.9180    -0.1830 ha         1 5BD       0.191000
     30 HN2          5.6820    -0.8430     0.0000 hn         1 5BD       0.315500
     31 C18          6.6990     1.3560    -0.3240 c3         1 5BD       0.088800
     32 H81         -5.7360    -0.8540     0.0320 hn         1 5BD       0.315500
     33 H9          -7.2940     0.5930     0.2990 h1         1 5BD       0.047200
     34 N3          -7.1160     2.6880    -0.0180 n3         1 5BD      -0.692600
     35 H10         -7.0570     1.1110    -1.3610 h1         1 5BD       0.047200
     36 H11          7.2430     0.6090     0.2790 h1         1 5BD       0.047200
     37 H12          6.9720     1.1570    -1.3660 h1         1 5BD       0.047200
     38 N4           7.0520     2.7090     0.0050 n3         1 5BD      -0.692600
     39 C19         -8.4450     3.0150    -0.4910 c3         1 5BD       0.149100
     40 C20         -6.9800     2.9770     1.3950 c3         1 5BD       0.149100
     41 H13         -5.9570     2.8100     1.7310 h1         1 5BD       0.035700
     42 H14         -7.2160     4.0250     1.5790 h1         1 5BD       0.035700
     43 H15         -7.6470     2.3660     2.0230 h1         1 5BD       0.035700
     44 H16         -9.2410     2.4330    -0.0020 h1         1 5BD       0.035700
     45 H17         -8.6490     4.0710    -0.3100 h1         1 5BD       0.035700
     46 H18         -8.5150     2.8420    -1.5660 h1         1 5BD       0.035700
     47 C21          6.9470     2.9690     1.4270 c3         1 5BD       0.149100
     48 C22          8.3680     3.0510    -0.4910 c3         1 5BD       0.149100
     49 H19          7.6300     2.3490     2.0270 h1         1 5BD       0.035700
     50 H20          7.1820     4.0140     1.6270 h1         1 5BD       0.035700
     51 H21          5.9320     2.7900     1.7820 h1         1 5BD       0.035700
     52 H22          8.4170     2.8960    -1.5690 h1         1 5BD       0.035700
     53 H23          8.5700     4.1050    -0.2960 h1         1 5BD       0.035700
     54 H24          9.1770     2.4660    -0.0280 h1         1 5BD       0.035700
@<TRIPOS>BOND
     1     1     2 ar  
     2     1     9 ar  
     3     1    23 1   
     4     2     3 ar  
     5     2    24 1   
     6     3    14 1   
     7     3    15 ar  
     8     4     5 ar  
     9     4    19 ar  
    10     4    25 1   
    11     5     6 ar  
    12     5    20 1   
    13     6     7 ar  
    14     6    26 1   
    15     7    18 ar  
    16     7    27 1   
    17     8    13 2   
    18     8    14 1   
    19     8    28 1   
    20     9    10 ar  
    21     9    12 1   
    22    10    11 1   
    23    10    15 ar  
    24    11    16 2   
    25    11    19 1   
    26    12    17 2   
    27    12    18 1   
    28    14    32 1   
    29    15    29 1   
    30    18    19 ar  
    31    20    21 1   
    32    20    30 1   
    33    21    22 2   
    34    21    31 1   
    35    28    33 1   
    36    28    34 1   
    37    28    35 1   
    38    31    36 1   
    39    31    37 1   
    40    31    38 1   
    41    34    39 1   
    42    34    40 1   
    43    38    47 1   
    44    38    48 1   
    45    39    44 1   
    46    39    45 1   
    47    39    46 1   
    48    40    41 1   
    49    40    42 1   
    50    40    43 1   
    51    47    49 1   
    52    47    50 1   
    53    47    51 1   
    54    48    52 1   
    55    48    53 1   
    56    48    54 1   
@<TRIPOS>SUBSTRUCTURE
     1 5BD         1 TEMP              0 ****  ****    0 ROOT
