@<TRIPOS>MOLECULE
5BD
   54    56     1     0     0
SMALL
No Charge or Current Charge


@<TRIPOS>ATOM
      1 C1          -2.5480    -2.9180     0.1070 ca         1 5BD      -0.034000
      2 C2          -3.7640    -2.2230     0.0360 ca         1 5BD      -0.171500
      3 C3          -3.7860    -0.8280    -0.1120 ca         1 5BD       0.003500
      4 C5           2.5040    -0.1250    -0.1800 ca         1 5BD      -0.102000
      5 C6           3.7320    -0.8170    -0.1110 ca         1 5BD       0.003500
      6 C7           3.7140    -2.2120     0.0360 ca         1 5BD      -0.171500
      7 C8           2.5010    -2.9110     0.1070 ca         1 5BD      -0.034000
      8 C9          -5.4470     1.1160    -0.4100 c          1 5BD       0.600100
      9 C11         -1.3190    -2.2280     0.0340 ca         1 5BD      -0.168100
     10 C12         -1.3240    -0.8190    -0.1100 ca         1 5BD      -0.097600
     11 C13         -0.0280    -0.0420    -0.1870 c          1 5BD       0.580300
     12 C14         -0.0230    -2.9990     0.1130 c          1 5BD       0.603300
     13 O1          -4.6590     2.0270    -0.6500 o          1 5BD      -0.531600
     14 N1          -5.0600    -0.1980    -0.1740 ns         1 5BD      -0.156500
     15 C4          -2.5600    -0.1320    -0.1800 ca         1 5BD      -0.102000
     16 O2          -0.0300     1.1790    -0.3080 o          1 5BD      -0.489100
     17 O3          -0.0220    -4.2200     0.2380 o          1 5BD      -0.530100
     18 C15          1.2700    -2.2250     0.0340 ca         1 5BD      -0.168100
     19 C16          1.2700    -0.8150    -0.1090 ca         1 5BD      -0.097600
     20 N2           5.0050    -0.1830    -0.1730 ns         1 5BD      -0.156500
     21 C10          5.3880     1.1330    -0.4040 c          1 5BD       0.600100
     22 O4           4.5980     2.0440    -0.6370 o          1 5BD      -0.531600
     23 H1          -2.5670    -4.0010     0.2190 ha         1 5BD       0.136000
     24 H2          -4.6970    -2.7790     0.0940 ha         1 5BD       0.114000
     25 H5           2.4890     0.9560    -0.2820 ha         1 5BD       0.173000
     26 H7           4.6490    -2.7650     0.0950 ha         1 5BD       0.114000
     27 H8           2.5230    -3.9940     0.2200 ha         1 5BD       0.136000
     28 C17         -6.9910     1.3280    -0.3540 c3         1 5BD       0.088800
     29 H4          -2.5480     0.9480    -0.2830 ha         1 5BD       0.173000
     30 HN2          5.7790    -0.8160    -0.0140 hn         1 5BD       0.149000
     31 C18          6.9320     1.3480    -0.3500 c3         1 5BD       0.088800
     32 H81         -5.8320    -0.8320    -0.0110 hn         1 5BD       0.149000
     33 H9          -7.3900     0.5940     0.3610 h1         1 5BD       0.047200
     34 N3          -7.5240     2.6890    -0.0060 n3         1 5BD      -0.692600
     35 H10         -7.3650     1.0280    -1.3410 h1         1 5BD       0.047200
     36 H11          7.3340     0.6100     0.3570 h1         1 5BD       0.047200
     37 H12          7.3030     1.0560    -1.3420 h1         1 5BD       0.047200
     38 N4           7.4620     2.7080     0.0060 n3         1 5BD      -0.692600
     39 C19         -8.9840     2.8010    -0.2250 c3         1 5BD       0.149100
     40 C20         -7.1230     3.1460     1.3460 c3         1 5BD       0.149100
     41 H13         -6.0300     3.1530     1.4540 h1         1 5BD       0.035700
     42 H14         -7.4820     4.1670     1.5320 h1         1 5BD       0.035700
     43 H15         -7.5410     2.4900     2.1220 h1         1 5BD       0.035700
     44 H16         -9.5340     2.1280     0.4480 h1         1 5BD       0.035700
     45 H17         -9.3270     3.8270    -0.0410 h1         1 5BD       0.035700
     46 H18         -9.2430     2.5400    -1.2600 h1         1 5BD       0.035700
     47 C21          7.0640     3.1540     1.3620 c3         1 5BD       0.149100
     48 C22          8.9210     2.8250    -0.2160 c3         1 5BD       0.149100
     49 H19          7.4860     2.4940     2.1320 h1         1 5BD       0.035700
     50 H20          7.4210     4.1750     1.5550 h1         1 5BD       0.035700
     51 H21          5.9720     3.1570     1.4730 h1         1 5BD       0.035700
     52 H22          9.1780     2.5720    -1.2540 h1         1 5BD       0.035700
     53 H23          9.2620     3.8510    -0.0260 h1         1 5BD       0.035700
     54 H24          9.4750     2.1490     0.4500 h1         1 5BD       0.035700
@<TRIPOS>BOND
     1     1     2 ar  
     2     1     9 ar  
     3     1    23 1   
     4     2     3 ar  
     5     2    24 1   
     6     3    14 1   
     7     3    15 ar  
     8     4     5 ar  
     9     4    19 ar  
    10     4    25 1   
    11     5     6 ar  
    12     5    20 1   
    13     6     7 ar  
    14     6    26 1   
    15     7    18 ar  
    16     7    27 1   
    17     8    13 2   
    18     8    14 1   
    19     8    28 1   
    20     9    10 ar  
    21     9    12 1   
    22    10    11 1   
    23    10    15 ar  
    24    11    16 2   
    25    11    19 1   
    26    12    17 2   
    27    12    18 1   
    28    14    32 1   
    29    15    29 1   
    30    18    19 ar  
    31    20    21 1   
    32    20    30 1   
    33    21    22 2   
    34    21    31 1   
    35    28    33 1   
    36    28    34 1   
    37    28    35 1   
    38    31    36 1   
    39    31    37 1   
    40    31    38 1   
    41    34    39 1   
    42    34    40 1   
    43    38    47 1   
    44    38    48 1   
    45    39    44 1   
    46    39    45 1   
    47    39    46 1   
    48    40    41 1   
    49    40    42 1   
    50    40    43 1   
    51    47    49 1   
    52    47    50 1   
    53    47    51 1   
    54    48    52 1   
    55    48    53 1   
    56    48    54 1   
@<TRIPOS>SUBSTRUCTURE
     1 5BD         1 TEMP              0 ****  ****    0 ROOT
