@<TRIPOS>MOLECULE
5BE
   56    59     1     0     0
SMALL
bcc


@<TRIPOS>ATOM
      1 C1           2.0390     3.3170    -0.2920 c6         1 5BE       0.167300
      2 C2          -0.8000    -1.8990    -0.0400 cc         1 5BE       0.458400
      3 C3           0.2730    -2.8700     0.0570 cc         1 5BE      -0.102200
      4 C4           1.5970    -2.7080     0.4240 cd         1 5BE      -0.279900
      5 C5           2.1330    -4.0150     0.4200 cd         1 5BE       0.366600
      6 N6           1.2120    -4.8900     0.0610 nc         1 5BE      -0.512800
      7 N7           0.1060    -4.1880    -0.1490 na         1 5BE       0.000400
      8 C8           3.5250    -4.4340     0.7390 c3         1 5BE      -0.125400
      9 C9           2.3170    -1.4620     0.7690 c          1 5BE       0.721700
     10 O10          3.0240    -1.3940     1.7670 o          1 5BE      -0.600100
     11 N11          2.1520    -0.4480    -0.0910 ns         1 5BE      -0.554900
     12 C12          2.5570     0.9160     0.1810 c6         1 5BE       0.118700
     13 C13          1.6160     1.8780    -0.5340 c6         1 5BE      -0.091900
     14 N14          3.4100     3.5430    -0.7100 n3         1 5BE      -0.717600
     15 C15          4.3260     2.6730     0.0020 c6         1 5BE       0.167300
     16 C16          3.9950     1.2080    -0.2360 c6         1 5BE      -0.091900
     17 N17         -0.8760    -0.8250     0.7000 nd         1 5BE      -0.537100
     18 N18         -1.8370    -2.0180    -0.9120 na         1 5BE      -0.263300
     19 C19         -2.6410    -0.9250    -0.7280 ca         1 5BE      -0.076200
     20 C20         -2.0170    -0.1880     0.2880 ca         1 5BE       0.063400
     21 C21         -2.5780     1.0120     0.7300 ca         1 5BE      -0.063000
     22 C22         -3.7510     1.4580     0.1480 ca         1 5BE      -0.093300
     23 C23         -4.3530     0.6940    -0.8760 ca         1 5BE      -0.097000
     24 C24         -3.8210    -0.4980    -1.3290 ca         1 5BE      -0.135000
     25 C25         -4.3810     2.7580     0.5950 c3         1 5BE      -0.014400
     26 C26         -4.3590     3.8000    -0.5240 c3         1 5BE      -0.085100
     27 C27         -5.8010     2.5480     1.1200 c3         1 5BE      -0.085100
     28 C28          3.7780     4.9330    -0.5590 c3         1 5BE       0.152100
     29 H1           1.3850     3.9870    -0.8560 h1         1 5BE       0.032450
     30 H1A          1.8970     3.5640     0.7760 h1         1 5BE       0.032450
     31 HN7         -0.7510    -4.6730    -0.3690 hn         1 5BE       0.323700
     32 H8           3.7640    -4.2380     1.7830 hc         1 5BE       0.057700
     33 H8A          3.6540    -5.4990     0.5520 hc         1 5BE       0.057700
     34 H8B          4.2510    -3.8920     0.1330 hc         1 5BE       0.057700
     35 HN11         1.5780    -0.6040    -0.9050 hn         1 5BE       0.310500
     36 H12          2.4700     1.0800     1.2610 h1         1 5BE       0.070700
     37 H13          0.5910     1.7300    -0.1880 hc         1 5BE       0.054950
     38 H13A         1.6310     1.6740    -1.6100 hc         1 5BE       0.054950
     39 H15          5.3430     2.8800    -0.3400 h1         1 5BE       0.032450
     40 H15A         4.3140     2.8780     1.0890 h1         1 5BE       0.032450
     41 H16          4.6880     0.5800     0.3270 hc         1 5BE       0.054950
     42 H16A         4.1200     0.9680    -1.2970 hc         1 5BE       0.054950
     43 HN18        -1.9510    -2.7280    -1.6200 hn         1 5BE       0.306700
     44 H21         -2.0970     1.5840     1.5150 ha         1 5BE       0.149000
     45 H23         -5.2710     1.0480    -1.3300 ha         1 5BE       0.134000
     46 H24         -4.3030    -1.0660    -2.1130 ha         1 5BE       0.137000
     47 H25         -3.7750     3.1450     1.4190 hc         1 5BE       0.051700
     48 H26         -3.3420     3.9920    -0.8680 hc         1 5BE       0.035533
     49 H26A        -4.9470     3.4740    -1.3840 hc         1 5BE       0.035533
     50 H26B        -4.7800     4.7460    -0.1790 hc         1 5BE       0.035533
     51 H27         -5.8200     1.8290     1.9400 hc         1 5BE       0.035533
     52 H27A        -6.2190     3.4860     1.4880 hc         1 5BE       0.035533
     53 H27B        -6.4660     2.1780     0.3360 hc         1 5BE       0.035533
     54 H28          3.7230     5.2860     0.4830 h1         1 5BE       0.029700
     55 H28A         4.8000     5.0900    -0.9090 h1         1 5BE       0.029700
     56 H28B         3.1200     5.5630    -1.1590 h1         1 5BE       0.029700
@<TRIPOS>BOND
     1     1    13 1   
     2     1    14 1   
     3     1    29 1   
     4     1    30 1   
     5     2     3 1   
     6     2    17 2   
     7     2    18 1   
     8     3     4 2   
     9     3     7 1   
    10     4     5 1   
    11     4     9 1   
    12     5     6 2   
    13     5     8 1   
    14     6     7 1   
    15     7    31 1   
    16     8    32 1   
    17     8    33 1   
    18     8    34 1   
    19     9    10 2   
    20     9    11 1   
    21    11    12 1   
    22    11    35 1   
    23    12    13 1   
    24    12    16 1   
    25    12    36 1   
    26    13    37 1   
    27    13    38 1   
    28    14    15 1   
    29    14    28 1   
    30    15    16 1   
    31    15    39 1   
    32    15    40 1   
    33    16    41 1   
    34    16    42 1   
    35    17    20 1   
    36    18    19 1   
    37    18    43 1   
    38    19    20 ar  
    39    19    24 ar  
    40    20    21 ar  
    41    21    22 ar  
    42    21    44 1   
    43    22    23 ar  
    44    22    25 1   
    45    23    24 ar  
    46    23    45 1   
    47    24    46 1   
    48    25    26 1   
    49    25    27 1   
    50    25    47 1   
    51    26    48 1   
    52    26    49 1   
    53    26    50 1   
    54    27    51 1   
    55    27    52 1   
    56    27    53 1   
    57    28    54 1   
    58    28    55 1   
    59    28    56 1   
@<TRIPOS>SUBSTRUCTURE
     1 5BE         1 TEMP              0 ****  ****    0 ROOT
