@<TRIPOS>MOLECULE
5BE
   56    59     1     0     0
SMALL
No Charge or Current Charge


@<TRIPOS>ATOM
      1 C1           2.4720     3.4360     1.0780 c6         1 5BE       0.167300
      2 C2          -0.7140    -1.8230    -0.1400 cc         1 5BE       0.458400
      3 C3           0.3510    -2.8140    -0.0330 cc         1 5BE      -0.152900
      4 C4           1.7150    -2.7400     0.2700 cd         1 5BE      -0.214600
      5 C5           2.1670    -4.0900     0.2610 cd         1 5BE       0.301300
      6 N6           1.2240    -4.9640    -0.0300 nc         1 5BE      -0.512800
      7 N7           0.1110    -4.1770    -0.2170 na         1 5BE       0.000800
      8 C8           3.5580    -4.6090     0.5230 c3         1 5BE      -0.125400
      9 C9           2.6190    -1.5740     0.5550 c          1 5BE       0.654700
     10 O10          3.7920    -1.7020     0.8760 o          1 5BE      -0.600100
     11 N11          2.0810    -0.3250     0.4200 ns         1 5BE      -0.487900
     12 C12          2.7800     0.9480     0.6260 c6         1 5BE       0.118700
     13 C13          1.7600     2.0720     0.9210 c6         1 5BE      -0.091900
     14 N14          3.2710     3.7710    -0.1310 n3         1 5BE      -0.717600
     15 C15          4.2750     2.7160    -0.4360 c6         1 5BE       0.167300
     16 C16          3.6030     1.3360    -0.6250 c6         1 5BE      -0.091900
     17 N17         -0.6780    -0.4920     0.0590 nd         1 5BE      -0.537100
     18 N18         -2.0140    -2.2180    -0.4810 na         1 5BE      -0.313600
     19 C19         -2.7880    -1.1000    -0.4970 ca         1 5BE      -0.076200
     20 C20         -1.9780    -0.0590    -0.1700 ca         1 5BE       0.063400
     21 C21         -2.4790     1.2470    -0.0980 ca         1 5BE      -0.045000
     22 C22         -3.8520     1.4650    -0.3730 ca         1 5BE      -0.093300
     23 C23         -4.6800     0.3600    -0.7130 ca         1 5BE      -0.079000
     24 C24         -4.1480    -0.9450    -0.7780 ca         1 5BE      -0.117000
     25 C25         -4.4270     2.8810    -0.3020 c3         1 5BE      -0.014400
     26 C26         -4.9550     3.3460    -1.6770 c3         1 5BE      -0.085100
     27 C27         -5.5090     2.9980     0.7940 c3         1 5BE      -0.085100
     28 C28          3.8770     5.1180    -0.0490 c3         1 5BE       0.152100
     29 H1           1.7120     4.2100     1.2590 h1         1 5BE       0.032450
     30 H1A          3.1200     3.4030     1.9660 h1         1 5BE       0.032450
     31 HN7         -0.7800    -4.6100    -0.4530 hn         1 5BE       0.374000
     32 H8           3.8850    -4.3560     1.5370 hc         1 5BE       0.057700
     33 H8A          3.6100    -5.7000     0.4230 hc         1 5BE       0.057700
     34 H8B          4.2750    -4.1800    -0.1860 hc         1 5BE       0.057700
     35 HN11         1.1100    -0.2890     0.1480 hn         1 5BE       0.310500
     36 H12          3.4560     0.8460     1.4880 h1         1 5BE       0.070700
     37 H13          1.2010     1.8410     1.8370 hc         1 5BE       0.054950
     38 H13A         1.0230     2.1370     0.1090 hc         1 5BE       0.054950
     39 H15          4.8250     2.9690    -1.3550 h1         1 5BE       0.032450
     40 H15A         5.0140     2.6480     0.3760 h1         1 5BE       0.032450
     41 H16          4.3730     0.5790    -0.8210 hc         1 5BE       0.054950
     42 H16A         2.9540     1.3630    -1.5110 hc         1 5BE       0.054950
     43 HN18        -2.3230    -3.1560    -0.6880 hn         1 5BE       0.357000
     44 H21         -1.8190     2.0700     0.1650 ha         1 5BE       0.131000
     45 H23         -5.7350     0.5130    -0.9270 ha         1 5BE       0.116000
     46 H24         -4.7750    -1.7950    -1.0380 ha         1 5BE       0.119000
     47 H25         -3.6230     3.5750    -0.0250 hc         1 5BE       0.051700
     48 H26         -4.1650     3.2760    -2.4350 hc         1 5BE       0.035533
     49 H26A        -5.8020     2.7330    -2.0060 hc         1 5BE       0.035533
     50 H26B        -5.2880     4.3900    -1.6300 hc         1 5BE       0.035533
     51 H27         -5.1060     2.6840     1.7650 hc         1 5BE       0.035533
     52 H27A        -5.8520     4.0360     0.8890 hc         1 5BE       0.035533
     53 H27B        -6.3780     2.3710     0.5640 hc         1 5BE       0.035533
     54 H28          4.5960     5.1740     0.7800 h1         1 5BE       0.029700
     55 H28A         4.4060     5.3630    -0.9800 h1         1 5BE       0.029700
     56 H28B         3.1050     5.8810     0.1120 h1         1 5BE       0.029700
@<TRIPOS>BOND
     1     1    13 1   
     2     1    14 1   
     3     1    29 1   
     4     1    30 1   
     5     2     3 1   
     6     2    17 2   
     7     2    18 1   
     8     3     4 2   
     9     3     7 1   
    10     4     5 1   
    11     4     9 1   
    12     5     6 2   
    13     5     8 1   
    14     6     7 1   
    15     7    31 1   
    16     8    32 1   
    17     8    33 1   
    18     8    34 1   
    19     9    10 2   
    20     9    11 1   
    21    11    12 1   
    22    11    35 1   
    23    12    13 1   
    24    12    16 1   
    25    12    36 1   
    26    13    37 1   
    27    13    38 1   
    28    14    15 1   
    29    14    28 1   
    30    15    16 1   
    31    15    39 1   
    32    15    40 1   
    33    16    41 1   
    34    16    42 1   
    35    17    20 1   
    36    18    19 1   
    37    18    43 1   
    38    19    20 ar  
    39    19    24 ar  
    40    20    21 ar  
    41    21    22 ar  
    42    21    44 1   
    43    22    23 ar  
    44    22    25 1   
    45    23    24 ar  
    46    23    45 1   
    47    24    46 1   
    48    25    26 1   
    49    25    27 1   
    50    25    47 1   
    51    26    48 1   
    52    26    49 1   
    53    26    50 1   
    54    27    51 1   
    55    27    52 1   
    56    27    53 1   
    57    28    54 1   
    58    28    55 1   
    59    28    56 1   
@<TRIPOS>SUBSTRUCTURE
     1 5BE         1 TEMP              0 ****  ****    0 ROOT
