@<TRIPOS>MOLECULE
5BF
   82    86     1     0     0
SMALL
bcc


@<TRIPOS>ATOM
      1 C01          1.2200     2.7560     3.3080 ca         1 5BF      -0.147000
      2 C02         -0.0400     2.1930     3.4530 ca         1 5BF      -0.108000
      3 C03         -1.1210     2.6420     2.6970 ca         1 5BF      -0.103300
      4 C04         -2.4820     2.0150     2.8100 c3         1 5BF      -0.027100
      5 C05         -0.9060     3.6870     1.8020 ca         1 5BF      -0.108000
      6 C06          0.3470     4.2610     1.6510 ca         1 5BF      -0.147000
      7 C07          1.4180     3.7930     2.4010 ca         1 5BF       0.108100
      8 O08          2.6460     4.3720     2.2640 os         1 5BF      -0.339900
      9 C09          3.5890     3.6100     1.5120 c3         1 5BF       0.141400
     10 C10          3.3450     3.6880     0.0140 c3         1 5BF      -0.110400
     11 C11          4.2420     2.7120    -0.7380 c3         1 5BF      -0.113400
     12 C12          4.0110     2.7820    -2.2400 c3         1 5BF       0.141400
     13 O13          4.6410     1.7120    -2.9440 os         1 5BF      -0.334900
     14 C14          4.1060     0.4830    -2.6910 ca         1 5BF       0.105100
     15 C15          2.8050     0.1680    -3.0710 ca         1 5BF      -0.151500
     16 C16          2.2720    -1.0690    -2.7470 ca         1 5BF      -0.110000
     17 C17          4.8760    -0.4670    -2.0330 ca         1 5BF      -0.151500
     18 C18          4.3300    -1.7040    -1.7180 ca         1 5BF      -0.110000
     19 C19          3.0140    -2.0170    -2.0450 ca         1 5BF      -0.095300
     20 C20          2.3800    -3.2890    -1.5570 c3         1 5BF      -0.015100
     21 C21          1.4840    -2.9770    -0.3620 c3         1 5BF      -0.186400
     22 C22          0.8880    -4.1800     0.3240 c          1 5BF       0.603700
     23 O23          1.2760    -5.3120     0.1150 o          1 5BF      -0.515100
     24 C24         -0.1910    -3.9320     1.2790 cc         1 5BF      -0.203900
     25 N25         -0.7250    -2.7010     1.5050 na         1 5BF      -0.122100
     26 C26         -0.8860    -4.8380     2.0680 cd         1 5BF      -0.136000
     27 C27         -1.8810    -4.1260     2.7490 cd         1 5BF      -0.141000
     28 C28         -1.7580    -2.7990     2.3760 cc         1 5BF      -0.191900
     29 C29         -2.6250    -1.6440     2.6590 c          1 5BF       0.702700
     30 O30         -3.8170    -1.7850     2.8650 o          1 5BF      -0.562100
     31 N31         -2.0060    -0.4310     2.6210 ns         1 5BF      -0.555900
     32 C32         -2.6460     0.7090     2.0110 c3         1 5BF       0.027700
     33 C33         -2.0720     0.8510     0.5950 c          1 5BF       0.654100
     34 O34         -1.0180     0.3240     0.2800 o          1 5BF      -0.628100
     35 N35         -2.7980     1.6110    -0.2380 ns         1 5BF      -0.544900
     36 C36         -2.4610     1.7800    -1.6220 c3         1 5BF      -0.021300
     37 C37         -2.6850     3.1960    -2.0790 c          1 5BF       0.565900
     38 O38         -3.0860     4.0880    -1.3780 o          1 5BF      -0.503100
     39 C39         -3.2390     0.8070    -2.5370 c3         1 5BF      -0.041100
     40 C40         -2.9680    -0.6230    -2.1650 ca         1 5BF      -0.087300
     41 C41         -3.7470    -1.2710    -1.2100 ca         1 5BF      -0.123000
     42 C42         -3.4490    -2.5670    -0.8090 ca         1 5BF      -0.128500
     43 C43         -2.3760    -3.2410    -1.3760 ca         1 5BF      -0.125000
     44 C44         -1.6030    -2.6100    -2.3420 ca         1 5BF      -0.128500
     45 C45         -1.8940    -1.3080    -2.7260 ca         1 5BF      -0.123000
     46 H1           2.0450     2.3980     3.9110 ha         1 5BF       0.142000
     47 H2          -0.1800     1.4000     4.1790 ha         1 5BF       0.137000
     48 H3          -2.7240     1.7920     3.8510 hc         1 5BF       0.066200
     49 H4          -3.2360     2.7230     2.4610 hc         1 5BF       0.066200
     50 H5          -1.7290     4.0550     1.2010 ha         1 5BF       0.137000
     51 H6           0.4930     5.0750     0.9530 ha         1 5BF       0.142000
     52 H7           4.5710     4.0160     1.7600 h1         1 5BF       0.050700
     53 H8           3.5760     2.5640     1.8420 h1         1 5BF       0.050700
     54 H9           2.3020     3.4380    -0.2010 hc         1 5BF       0.051200
     55 H10          3.5050     4.7130    -0.3330 hc         1 5BF       0.051200
     56 H11          5.2960     2.9000    -0.5140 hc         1 5BF       0.053200
     57 H12          4.0210     1.7010    -0.3820 hc         1 5BF       0.053200
     58 H13          2.9350     2.7920    -2.4500 h1         1 5BF       0.049200
     59 H14          4.4290     3.7010    -2.6530 h1         1 5BF       0.049200
     60 H15          2.2020     0.8890    -3.6120 ha         1 5BF       0.139500
     61 H16          1.2500    -1.2910    -3.0370 ha         1 5BF       0.131000
     62 H17          5.8920    -0.2280    -1.7430 ha         1 5BF       0.139500
     63 H18          4.9320    -2.4250    -1.1790 ha         1 5BF       0.131000
     64 H19          1.7880    -3.7570    -2.3470 hc         1 5BF       0.060700
     65 H20          3.1520    -4.0050    -1.2740 hc         1 5BF       0.060700
     66 H21          2.0490    -2.4140     0.3910 hc         1 5BF       0.068700
     67 H22          0.6800    -2.3060    -0.6830 hc         1 5BF       0.068700
     68 H23         -0.5240    -1.8640     0.9710 hn         1 5BF       0.322700
     69 H24         -0.6850    -5.8950     2.1340 ha         1 5BF       0.168000
     70 H25         -2.6040    -4.5210     3.4430 ha         1 5BF       0.167000
     71 H26         -1.0000    -0.4380     2.5340 hn         1 5BF       0.317500
     72 H27         -3.7140     0.4950     1.9530 h1         1 5BF       0.092700
     73 H28         -3.6890     1.9660     0.0750 hn         1 5BF       0.327500
     74 H29         -1.3910     1.5770    -1.7440 h1         1 5BF       0.105700
     75 H30         -2.4510     3.3600    -3.1450 h4         1 5BF      -0.001800
     76 H31         -4.3070     1.0270    -2.4620 hc         1 5BF       0.056700
     77 H32         -2.9450     0.9910    -3.5720 hc         1 5BF       0.056700
     78 H33         -4.5960    -0.7580    -0.7720 ha         1 5BF       0.127000
     79 H34         -4.0580    -3.0510    -0.0570 ha         1 5BF       0.139500
     80 H35         -2.1490    -4.2540    -1.0700 ha         1 5BF       0.142000
     81 H36         -0.7730    -3.1350    -2.8000 ha         1 5BF       0.139500
     82 H37         -1.2810    -0.8190    -3.4750 ha         1 5BF       0.127000
@<TRIPOS>BOND
     1     1     2 ar  
     2     1     7 ar  
     3     1    46 1   
     4     2     3 ar  
     5     2    47 1   
     6     3     4 1   
     7     3     5 ar  
     8     4    32 1   
     9     4    48 1   
    10     4    49 1   
    11     5     6 ar  
    12     5    50 1   
    13     6     7 ar  
    14     6    51 1   
    15     7     8 1   
    16     8     9 1   
    17     9    10 1   
    18     9    52 1   
    19     9    53 1   
    20    10    11 1   
    21    10    54 1   
    22    10    55 1   
    23    11    12 1   
    24    11    56 1   
    25    11    57 1   
    26    12    13 1   
    27    12    58 1   
    28    12    59 1   
    29    13    14 1   
    30    14    15 ar  
    31    14    17 ar  
    32    15    16 ar  
    33    15    60 1   
    34    16    19 ar  
    35    16    61 1   
    36    17    18 ar  
    37    17    62 1   
    38    18    19 ar  
    39    18    63 1   
    40    19    20 1   
    41    20    21 1   
    42    20    64 1   
    43    20    65 1   
    44    21    22 1   
    45    21    66 1   
    46    21    67 1   
    47    22    23 2   
    48    22    24 1   
    49    24    25 1   
    50    24    26 2   
    51    25    28 1   
    52    25    68 1   
    53    26    27 1   
    54    26    69 1   
    55    27    28 2   
    56    27    70 1   
    57    28    29 1   
    58    29    30 2   
    59    29    31 1   
    60    31    32 1   
    61    31    71 1   
    62    32    33 1   
    63    32    72 1   
    64    33    34 2   
    65    33    35 1   
    66    35    36 1   
    67    35    73 1   
    68    36    37 1   
    69    36    39 1   
    70    36    74 1   
    71    37    38 2   
    72    37    75 1   
    73    39    40 1   
    74    39    76 1   
    75    39    77 1   
    76    40    41 ar  
    77    40    45 ar  
    78    41    42 ar  
    79    41    78 1   
    80    42    43 ar  
    81    42    79 1   
    82    43    44 ar  
    83    43    80 1   
    84    44    45 ar  
    85    44    81 1   
    86    45    82 1   
@<TRIPOS>SUBSTRUCTURE
     1 5BF         1 TEMP              0 ****  ****    0 ROOT
