@<TRIPOS>MOLECULE
5BF
   82    86     1     0     0
SMALL
No Charge or Current Charge


@<TRIPOS>ATOM
      1 C01          1.3710     2.5590     2.5320 ca         1 5BF      -0.129000
      2 C02          0.1590     1.8720     2.7190 ca         1 5BF      -0.090000
      3 C03         -1.0720     2.5400     2.5640 ca         1 5BF      -0.103300
      4 C04         -2.3960     1.7860     2.6930 c3         1 5BF      -0.027100
      5 C05         -1.0730     3.9170     2.2640 ca         1 5BF      -0.090000
      6 C06          0.1400     4.6090     2.0980 ca         1 5BF      -0.129000
      7 C07          1.3640     3.9330     2.2080 ca         1 5BF       0.108100
      8 O08          2.5260     4.6500     1.9960 os         1 5BF      -0.363100
      9 C09          3.7170     4.0410     1.4530 c3         1 5BF       0.164600
     10 C10          3.4690     3.7330    -0.0430 c3         1 5BF      -0.110400
     11 C11          4.5340     2.7990    -0.6590 c3         1 5BF      -0.113400
     12 C12          4.3470     2.5870    -2.1850 c3         1 5BF       0.164600
     13 O13          4.8200     1.2710    -2.5400 os         1 5BF      -0.358100
     14 C14          4.1360     0.1160    -2.2040 ca         1 5BF       0.105100
     15 C15          2.8080     0.1280    -1.7220 ca         1 5BF      -0.133500
     16 C16          2.1730    -1.0740    -1.3740 ca         1 5BF      -0.092000
     17 C17          4.8030    -1.1120    -2.3500 ca         1 5BF      -0.133500
     18 C18          4.1690    -2.3160    -1.9920 ca         1 5BF      -0.092000
     19 C19          2.8520    -2.3010    -1.4960 ca         1 5BF      -0.095300
     20 C20          2.1760    -3.5880    -1.0460 c3         1 5BF      -0.015100
     21 C21          2.5030    -3.8990     0.4340 c3         1 5BF      -0.186400
     22 C22          1.4860    -4.8680     1.0470 c          1 5BF       0.603700
     23 O23          1.6960    -6.0750     1.0610 o          1 5BF      -0.515100
     24 C24          0.2390    -4.2680     1.5870 cc         1 5BF      -0.254600
     25 N25         -0.1920    -2.9330     1.5800 na         1 5BF      -0.071000
     26 C26         -0.7600    -4.9740     2.2080 cd         1 5BF      -0.118000
     27 C27         -1.7910    -4.0870     2.5730 cd         1 5BF      -0.123000
     28 C28         -1.4600    -2.8160     2.1720 cc         1 5BF      -0.242600
     29 C29         -2.3510    -1.6420     2.3420 c          1 5BF       0.635700
     30 O30         -3.4340    -1.6820     2.9060 o          1 5BF      -0.562100
     31 N31         -1.8630    -0.4930     1.7620 ns         1 5BF      -0.488900
     32 C32         -2.6410     0.7490     1.5640 c3         1 5BF       0.027700
     33 C33         -2.3090     1.3130     0.1570 c          1 5BF       0.587100
     34 O34         -1.2160     1.1600    -0.3790 o          1 5BF      -0.628100
     35 N35         -3.3530     1.9470    -0.4860 ns         1 5BF      -0.477900
     36 C36         -3.3790     2.2330    -1.9430 c3         1 5BF      -0.021300
     37 C37         -4.1660     3.5300    -2.2530 c          1 5BF       0.565900
     38 O38         -4.8430     4.1380    -1.4270 o          1 5BF      -0.503100
     39 C39         -3.9350     1.0260    -2.7500 c3         1 5BF      -0.041100
     40 C40         -3.2590    -0.3020    -2.4050 ca         1 5BF      -0.087300
     41 C41         -3.8450    -1.1750    -1.4660 ca         1 5BF      -0.105000
     42 C42         -3.2010    -2.3730    -1.1090 ca         1 5BF      -0.110500
     43 C43         -1.9680    -2.7090    -1.6930 ca         1 5BF      -0.107000
     44 C44         -1.3830    -1.8480    -2.6370 ca         1 5BF      -0.110500
     45 C45         -2.0260    -0.6480    -2.9910 ca         1 5BF      -0.105000
     46 H1           2.3020     2.0140     2.6510 ha         1 5BF       0.124000
     47 H2           0.1810     0.8160     2.9730 ha         1 5BF       0.119000
     48 H3          -2.4510     1.2810     3.6650 hc         1 5BF       0.066200
     49 H4          -3.2300     2.4980     2.6840 hc         1 5BF       0.066200
     50 H5          -2.0120     4.4530     2.1460 ha         1 5BF       0.119000
     51 H6           0.1300     5.6690     1.8580 ha         1 5BF       0.124000
     52 H7           4.5660     4.7320     1.5350 h1         1 5BF       0.050700
     53 H8           3.9880     3.1290     1.9980 h1         1 5BF       0.050700
     54 H9           2.4860     3.2620    -0.1670 hc         1 5BF       0.051200
     55 H10          3.4430     4.6790    -0.5990 hc         1 5BF       0.051200
     56 H11          5.5350     3.2110    -0.4820 hc         1 5BF       0.053200
     57 H12          4.4940     1.8380    -0.1330 hc         1 5BF       0.053200
     58 H13          3.2970     2.7160    -2.4740 h1         1 5BF       0.049200
     59 H14          4.9220     3.3550    -2.7190 h1         1 5BF       0.049200
     60 H15          2.2540     1.0540    -1.6030 ha         1 5BF       0.121500
     61 H16          1.1540    -1.0470    -0.9950 ha         1 5BF       0.113000
     62 H17          5.8240    -1.1290    -2.7240 ha         1 5BF       0.121500
     63 H18          4.7060    -3.2570    -2.0880 ha         1 5BF       0.113000
     64 H19          1.0900    -3.4970    -1.1730 hc         1 5BF       0.060700
     65 H20          2.4840    -4.4330    -1.6750 hc         1 5BF       0.060700
     66 H21          3.5130    -4.3200     0.5010 hc         1 5BF       0.068700
     67 H22          2.4540    -2.9500     0.9780 hc         1 5BF       0.068700
     68 H23          0.3450    -2.1630     1.1920 hn         1 5BF       0.373000
     69 H24         -0.7600    -6.0460     2.3860 ha         1 5BF       0.150000
     70 H25         -2.7150    -4.3700     3.0700 ha         1 5BF       0.149000
     71 H26         -0.9830    -0.5620     1.2720 hn         1 5BF       0.317500
     72 H27         -3.7070     0.4860     1.5610 h1         1 5BF       0.092700
     73 H28         -4.2110     2.0680     0.0410 hn         1 5BF       0.327500
     74 H29         -2.3520     2.4210    -2.2810 h1         1 5BF       0.105700
     75 H30         -4.0790     3.8970    -3.2990 h4         1 5BF      -0.001800
     76 H31         -5.0150     0.9460    -2.5690 hc         1 5BF       0.056700
     77 H32         -3.8260     1.2310    -3.8220 hc         1 5BF       0.056700
     78 H33         -4.7940    -0.9200    -0.9990 ha         1 5BF       0.109000
     79 H34         -3.6540    -3.0380    -0.3770 ha         1 5BF       0.121500
     80 H35         -1.4710    -3.6360    -1.4150 ha         1 5BF       0.124000
     81 H36         -0.4280    -2.1060    -3.0900 ha         1 5BF       0.121500
     82 H37         -1.5580     0.0200    -3.7110 ha         1 5BF       0.109000
@<TRIPOS>BOND
     1     1     2 ar  
     2     1     7 ar  
     3     1    46 1   
     4     2     3 ar  
     5     2    47 1   
     6     3     4 1   
     7     3     5 ar  
     8     4    32 1   
     9     4    48 1   
    10     4    49 1   
    11     5     6 ar  
    12     5    50 1   
    13     6     7 ar  
    14     6    51 1   
    15     7     8 1   
    16     8     9 1   
    17     9    10 1   
    18     9    52 1   
    19     9    53 1   
    20    10    11 1   
    21    10    54 1   
    22    10    55 1   
    23    11    12 1   
    24    11    56 1   
    25    11    57 1   
    26    12    13 1   
    27    12    58 1   
    28    12    59 1   
    29    13    14 1   
    30    14    15 ar  
    31    14    17 ar  
    32    15    16 ar  
    33    15    60 1   
    34    16    19 ar  
    35    16    61 1   
    36    17    18 ar  
    37    17    62 1   
    38    18    19 ar  
    39    18    63 1   
    40    19    20 1   
    41    20    21 1   
    42    20    64 1   
    43    20    65 1   
    44    21    22 1   
    45    21    66 1   
    46    21    67 1   
    47    22    23 2   
    48    22    24 1   
    49    24    25 1   
    50    24    26 2   
    51    25    28 1   
    52    25    68 1   
    53    26    27 1   
    54    26    69 1   
    55    27    28 2   
    56    27    70 1   
    57    28    29 1   
    58    29    30 2   
    59    29    31 1   
    60    31    32 1   
    61    31    71 1   
    62    32    33 1   
    63    32    72 1   
    64    33    34 2   
    65    33    35 1   
    66    35    36 1   
    67    35    73 1   
    68    36    37 1   
    69    36    39 1   
    70    36    74 1   
    71    37    38 2   
    72    37    75 1   
    73    39    40 1   
    74    39    76 1   
    75    39    77 1   
    76    40    41 ar  
    77    40    45 ar  
    78    41    42 ar  
    79    41    78 1   
    80    42    43 ar  
    81    42    79 1   
    82    43    44 ar  
    83    43    80 1   
    84    44    45 ar  
    85    44    81 1   
    86    45    82 1   
@<TRIPOS>SUBSTRUCTURE
     1 5BF         1 TEMP              0 ****  ****    0 ROOT
