@<TRIPOS>MOLECULE
5BG
  107   111     1     0     0
SMALL
No Charge or Current Charge


@<TRIPOS>ATOM
      1 CAC         -6.8460     4.7490    -0.7110 c3         1 5BG       0.144400
      2 OBH         -6.8460     3.6010    -1.5780 os         1 5BG      -0.327600
      3 CBU         -5.7180     2.8240    -1.7930 ca         1 5BG       0.155600
      4 CAQ         -4.4890     3.1300    -1.1740 ca         1 5BG      -0.221000
      5 CBW         -5.8290     1.7080    -2.6580 ca         1 5BG       0.021100
      6 OBJ         -7.0860     1.4860    -3.2250 os         1 5BG      -0.328100
      7 CAE         -7.4090     0.4160    -4.1320 c3         1 5BG       0.148900
      8 CBV         -4.6760     0.8970    -2.8930 ca         1 5BG       0.155600
      9 OBI         -4.7430    -0.2010    -3.7350 os         1 5BG      -0.327600
     10 CAD         -3.6140    -1.0490    -4.0170 c3         1 5BG       0.144400
     11 CAR         -3.4580     1.2270    -2.2560 ca         1 5BG      -0.221000
     12 CBR         -3.3560     2.3320    -1.3950 ca         1 5BG      -0.007300
     13 CCA         -2.0240     2.6790    -0.7160 c3         1 5BG      -0.090400
     14 CBY         -0.8980     3.0490    -1.7460 c6         1 5BG      -0.048700
     15 CAY         -1.3270     4.2190    -2.6810 c6         1 5BG      -0.073400
     16 CAT         -0.2160     4.5720    -3.7020 c6         1 5BG      -0.074400
     17 CAS          1.1180     4.9050    -2.9910 c6         1 5BG      -0.074400
     18 CAU          1.5550     3.7480    -2.0620 c6         1 5BG      -0.074400
     19 CAZ          0.4460     3.4020    -1.0390 c6         1 5BG      -0.073400
     20 CBN         -1.6170     1.5200     0.2290 c          1 5BG       0.583100
     21 OAH         -1.1050     0.4990    -0.2110 o          1 5BG      -0.553100
     22 N           -1.8530     1.6550     1.6190 n          1 5BG      -0.388800
     23 CBD         -3.1490     2.1670     2.1320 c6         1 5BG       0.088000
     24 CAW         -4.0960     0.9840     2.4510 c6         1 5BG      -0.111400
     25 CAV         -3.4370    -0.0260     3.4250 c6         1 5BG      -0.078400
     26 CB          -2.0360    -0.4690     2.9260 c6         1 5BG      -0.087400
     27 CA          -1.1560     0.7790     2.6150 c6         1 5BG       0.005700
     28 C            0.3580     0.5270     2.3240 c          1 5BG       0.620100
     29 O            1.1230     1.4590     2.1120 o          1 5BG      -0.573100
     30 NBE          0.8070    -0.7770     2.3770 ns         1 5BG      -0.503900
     31 CBX          2.1960    -1.2000     2.1850 c3         1 5BG       0.176000
     32 CBQ          2.4830    -2.4050     3.0800 ca         1 5BG      -0.069300
     33 CAP          3.3830    -2.2850     4.1580 ca         1 5BG      -0.145000
     34 CAL          1.8440    -3.6420     2.8570 ca         1 5BG      -0.157000
     35 CAJ          2.1060    -4.7400     3.6930 ca         1 5BG      -0.081000
     36 CAK          3.0070    -4.6120     4.7630 ca         1 5BG      -0.209000
     37 CBP          3.6490    -3.3780     4.9990 ca         1 5BG       0.171100
     38 OBK          4.5410    -3.1920     6.0380 os         1 5BG      -0.296100
     39 CBC          4.8760    -4.2510     6.9670 c3         1 5BG       0.003600
     40 CBL          5.8970    -3.8100     8.0590 c          1 5BG       0.729000
     41 OAI          6.2340    -4.6450     8.8890 o          1 5BG      -0.714000
     42 OAF          6.3270    -2.6620     8.0580 o          1 5BG      -0.714000
     43 CBA          2.5310    -1.4920     0.6980 c3         1 5BG      -0.092400
     44 CAX          2.5000    -0.2470    -0.2270 c3         1 5BG      -0.030100
     45 CBO          3.0840    -0.4630    -1.6230 ca         1 5BG      -0.070300
     46 CAO          2.8350    -1.6440    -2.3540 ca         1 5BG      -0.163000
     47 CAM          3.8590     0.5570    -2.2080 ca         1 5BG      -0.112000
     48 CAN          4.3950     0.4020    -3.4970 ca         1 5BG      -0.169000
     49 CBS          4.1590    -0.7860    -4.2260 ca         1 5BG       0.102100
     50 OBF          4.6750    -0.9750    -5.4980 os         1 5BG      -0.322100
     51 CAA          5.4670     0.0240    -6.1670 c3         1 5BG       0.147900
     52 CBT          3.3750    -1.8160    -3.6500 ca         1 5BG       0.115100
     53 OBG          3.1540    -2.9720    -4.3840 os         1 5BG      -0.327100
     54 CAB          2.4030    -4.0880    -3.8680 c3         1 5BG       0.144900
     55 H1          -6.5770     4.4640     0.3140 h1         1 5BG       0.043200
     56 H2          -6.1350     5.5060    -1.0660 h1         1 5BG       0.043200
     57 H3          -7.8430     5.2050    -0.6860 h1         1 5BG       0.043200
     58 H4          -4.3980     3.9920    -0.5210 ha         1 5BG       0.132000
     59 H5          -7.2490    -0.5610    -3.6590 h1         1 5BG       0.031367
     60 H6          -8.4640     0.4770    -4.4240 h1         1 5BG       0.031367
     61 H7          -6.8040     0.4800    -5.0460 h1         1 5BG       0.031367
     62 H8          -3.2370    -1.5160    -3.0990 h1         1 5BG       0.043200
     63 H9          -3.9060    -1.8490    -4.7090 h1         1 5BG       0.043200
     64 H10         -2.8030    -0.4760    -4.4840 h1         1 5BG       0.043200
     65 H11         -2.5700     0.6260    -2.4200 ha         1 5BG       0.132000
     66 H12         -2.1950     3.5550    -0.0810 hc         1 5BG       0.058700
     67 H13         -0.7290     2.1590    -2.3680 hc         1 5BG       0.078700
     68 H14         -2.2400     3.9560    -3.2310 hc         1 5BG       0.038450
     69 H15         -1.5710     5.1070    -2.0810 hc         1 5BG       0.038450
     70 H16         -0.0670     3.7300    -4.3910 hc         1 5BG       0.043700
     71 H17         -0.5330     5.4260    -4.3170 hc         1 5BG       0.043700
     72 H18          1.9000     5.1010    -3.7370 hc         1 5BG       0.034700
     73 H19          1.0050     5.8280    -2.4050 hc         1 5BG       0.034700
     74 H20          1.7940     2.8600    -2.6640 hc         1 5BG       0.043700
     75 H21          2.4780     4.0220    -1.5330 hc         1 5BG       0.043700
     76 H22          0.2980     4.2490    -0.3550 hc         1 5BG       0.038450
     77 H23          0.7900     2.5620    -0.4230 hc         1 5BG       0.038450
     78 H24         -2.9680     2.7500     3.0470 h1         1 5BG       0.050200
     79 H25         -3.6320     2.8370     1.4130 h1         1 5BG       0.050200
     80 H26         -5.0340     1.3630     2.8790 hc         1 5BG       0.050700
     81 H27         -4.3640     0.4730     1.5160 hc         1 5BG       0.050700
     82 H28         -3.3410     0.4360     4.4180 hc         1 5BG       0.040200
     83 H29         -4.0850    -0.9040     3.5520 hc         1 5BG       0.040200
     84 H30         -1.5640    -1.0920     3.6980 hc         1 5BG       0.072200
     85 H31         -2.1370    -1.0910     2.0250 hc         1 5BG       0.072200
     86 H32         -1.1130     1.3490     3.5540 h1         1 5BG       0.057700
     87 H33          0.1180    -1.4910     2.5670 hn         1 5BG       0.309500
     88 H34          2.8490    -0.3800     2.5140 h1         1 5BG       0.062700
     89 H35          3.8810    -1.3380     4.3500 ha         1 5BG       0.124000
     90 H36          1.1390    -3.7570     2.0370 ha         1 5BG       0.101000
     91 H37          1.6090    -5.6900     3.5120 ha         1 5BG       0.090000
     92 H38          3.1920    -5.4750     5.3960 ha         1 5BG       0.120000
     93 H39          3.9720    -4.6010     7.4820 h1         1 5BG       0.016200
     94 H40          5.3140    -5.1010     6.4280 h1         1 5BG       0.016200
     95 H42          3.5370    -1.9280     0.6530 hc         1 5BG       0.059200
     96 H43          1.8390    -2.2500     0.3170 hc         1 5BG       0.059200
     97 H44          1.4650     0.0940    -0.3290 hc         1 5BG       0.043700
     98 H45          3.0420     0.5650     0.2740 hc         1 5BG       0.043700
     99 H46          2.2170    -2.4180    -1.9100 ha         1 5BG       0.124000
    100 H47          4.0470     1.4800    -1.6630 ha         1 5BG       0.109000
    101 H48          4.9890     1.2130    -3.9100 ha         1 5BG       0.113000
    102 H49          4.8940     0.9530    -6.2970 h1         1 5BG       0.035367
    103 H50          6.3780     0.2470    -5.5950 h1         1 5BG       0.035367
    104 H51          5.7670    -0.3320    -7.1600 h1         1 5BG       0.035367
    105 H52          2.3660    -4.8980    -4.6080 h1         1 5BG       0.041033
    106 H53          2.8700    -4.4840    -2.9550 h1         1 5BG       0.041033
    107 H54          1.3710    -3.7920    -3.6390 h1         1 5BG       0.041033
@<TRIPOS>BOND
     1     1     2 1   
     2     1    55 1   
     3     1    56 1   
     4     1    57 1   
     5     2     3 1   
     6     3     4 ar  
     7     3     5 ar  
     8     4    12 ar  
     9     4    58 1   
    10     5     6 1   
    11     5     8 ar  
    12     6     7 1   
    13     7    59 1   
    14     7    60 1   
    15     7    61 1   
    16     8     9 1   
    17     8    11 ar  
    18     9    10 1   
    19    10    62 1   
    20    10    63 1   
    21    10    64 1   
    22    11    12 ar  
    23    11    65 1   
    24    12    13 1   
    25    13    14 1   
    26    13    20 1   
    27    13    66 1   
    28    14    15 1   
    29    14    19 1   
    30    14    67 1   
    31    15    16 1   
    32    15    68 1   
    33    15    69 1   
    34    16    17 1   
    35    16    70 1   
    36    16    71 1   
    37    17    18 1   
    38    17    72 1   
    39    17    73 1   
    40    18    19 1   
    41    18    74 1   
    42    18    75 1   
    43    19    76 1   
    44    19    77 1   
    45    20    21 2   
    46    20    22 1   
    47    22    23 1   
    48    22    27 1   
    49    23    24 1   
    50    23    78 1   
    51    23    79 1   
    52    24    25 1   
    53    24    80 1   
    54    24    81 1   
    55    25    26 1   
    56    25    82 1   
    57    25    83 1   
    58    26    27 1   
    59    26    84 1   
    60    26    85 1   
    61    27    28 1   
    62    27    86 1   
    63    28    29 2   
    64    28    30 1   
    65    30    31 1   
    66    30    87 1   
    67    31    32 1   
    68    31    43 1   
    69    31    88 1   
    70    32    33 ar  
    71    32    34 ar  
    72    33    37 ar  
    73    33    89 1   
    74    34    35 ar  
    75    34    90 1   
    76    35    36 ar  
    77    35    91 1   
    78    36    37 ar  
    79    36    92 1   
    80    37    38 1   
    81    38    39 1   
    82    39    40 1   
    83    39    93 1   
    84    39    94 1   
    85    40    41 1   
    86    40    42 1   
    87    43    44 1   
    88    43    95 1   
    89    43    96 1   
    90    44    45 1   
    91    44    97 1   
    92    44    98 1   
    93    45    46 ar  
    94    45    47 ar  
    95    46    52 ar  
    96    46    99 1   
    97    47    48 ar  
    98    47   100 1   
    99    48    49 ar  
   100    48   101 1   
   101    49    50 1   
   102    49    52 ar  
   103    50    51 1   
   104    51   102 1   
   105    51   103 1   
   106    51   104 1   
   107    52    53 1   
   108    53    54 1   
   109    54   105 1   
   110    54   106 1   
   111    54   107 1   
@<TRIPOS>SUBSTRUCTURE
     1 5BG         1 TEMP              0 ****  ****    0 ROOT
