@<TRIPOS>MOLECULE
5BG
  107   111     1     0     0
SMALL
abcg2


@<TRIPOS>ATOM
      1 CAC         -5.8770     5.0170    -1.7980 c3         1 5BG       0.144400
      2 OBH         -6.5840     3.9410    -1.2140 os         1 5BG      -0.327600
      3 CBU         -5.8940     2.8480    -0.8440 ca         1 5BG       0.155600
      4 CAQ         -4.5180     2.6940    -1.0050 ca         1 5BG      -0.221000
      5 CBW         -6.6450     1.8280    -0.2590 ca         1 5BG       0.021100
      6 OBJ         -7.9830     1.9860    -0.0730 os         1 5BG      -0.328100
      7 CAE         -8.7760     1.5430    -1.1660 c3         1 5BG       0.148900
      8 CBV         -6.0110     0.6510     0.1490 ca         1 5BG       0.155600
      9 OBI         -6.8140    -0.2790     0.6960 os         1 5BG      -0.327600
     10 CAD         -6.2330    -1.4830     1.1550 c3         1 5BG       0.144400
     11 CAR         -4.6360     0.5020    -0.0130 ca         1 5BG      -0.221000
     12 CBR         -3.8940     1.5250    -0.5920 ca         1 5BG      -0.007300
     13 CCA         -2.4010     1.3860    -0.8000 c3         1 5BG      -0.090400
     14 CBY         -2.0140     0.3310    -1.8530 c6         1 5BG      -0.048700
     15 CAY         -2.7970     0.5200    -3.1530 c6         1 5BG      -0.073400
     16 CAT         -2.3700    -0.4920    -4.2120 c6         1 5BG      -0.074400
     17 CAS         -0.8700    -0.4300    -4.4830 c6         1 5BG      -0.074400
     18 CAU         -0.0760    -0.6060    -3.1930 c6         1 5BG      -0.074400
     19 CAZ         -0.5130     0.4100    -2.1450 c6         1 5BG      -0.073400
     20 CBN         -1.7290     1.0680     0.5310 c          1 5BG       0.583100
     21 OAH         -1.7340    -0.0700     0.9710 o          1 5BG      -0.553100
     22 N           -1.0750     2.0700     1.1870 n          1 5BG      -0.388800
     23 CBD         -1.5300     3.4590     1.1360 c6         1 5BG       0.088000
     24 CAW         -2.6390     3.6760     2.1610 c6         1 5BG      -0.111400
     25 CAV         -2.2000     3.2370     3.5570 c6         1 5BG      -0.078400
     26 CB          -1.5950     1.8320     3.5690 c6         1 5BG      -0.087400
     27 CA          -0.5140     1.7560     2.4990 c6         1 5BG       0.005700
     28 C            0.3450     0.4940     2.5230 c          1 5BG       0.620100
     29 O            0.3600    -0.2570     3.4820 o          1 5BG      -0.573100
     30 NBE          1.1930     0.3670     1.4860 ns         1 5BG      -0.503900
     31 CBX          2.2350    -0.6360     1.4340 c3         1 5BG       0.176000
     32 CBQ          1.7070    -2.0480     1.3110 ca         1 5BG      -0.069300
     33 CAP          2.3150    -3.0580     2.0370 ca         1 5BG      -0.145000
     34 CAL          0.6780    -2.3670     0.4260 ca         1 5BG      -0.157000
     35 CAJ          0.2800    -3.6860     0.2900 ca         1 5BG      -0.081000
     36 CAK          0.8880    -4.7060     1.0140 ca         1 5BG      -0.209000
     37 CBP          1.9190    -4.3910     1.8970 ca         1 5BG       0.171100
     38 OBK          2.5810    -5.2850     2.6520 os         1 5BG      -0.296100
     39 CBC          2.2290    -6.6510     2.5540 c3         1 5BG       0.003600
     40 CBL          3.1130    -7.5080     3.4750 c          1 5BG       0.729000
     41 OAI          2.8210    -8.7200     3.4570 o          1 5BG      -0.714000
     42 OAF          4.0070    -6.9470     4.1230 o          1 5BG      -0.714000
     43 CBA          3.1690    -0.3260     0.2620 c3         1 5BG      -0.092400
     44 CAX          3.8930     1.0180     0.3860 c3         1 5BG      -0.030100
     45 CBO          4.8670     1.2240    -0.7410 ca         1 5BG      -0.070300
     46 CAO          6.2040     0.8420    -0.5930 ca         1 5BG      -0.163000
     47 CAM          4.4590     1.7470    -1.9540 ca         1 5BG      -0.112000
     48 CAN          5.3590     1.8940    -3.0090 ca         1 5BG      -0.169000
     49 CBS          6.6840     1.5210    -2.8610 ca         1 5BG       0.102100
     50 OBF          7.6330     1.6280    -3.8120 os         1 5BG      -0.322100
     51 CAA          7.2550     2.1500    -5.0680 c3         1 5BG       0.147900
     52 CBT          7.1120     0.9840    -1.6290 ca         1 5BG       0.115100
     53 OBG          8.4150     0.6470    -1.5640 os         1 5BG      -0.327100
     54 CAB          8.9090     0.1200    -0.3500 c3         1 5BG       0.144900
     55 H1          -5.1290     5.4320    -1.1170 h1         1 5BG       0.043200
     56 H2          -5.3830     4.7260    -2.7280 h1         1 5BG       0.043200
     57 H3          -6.6140     5.7850    -2.0190 h1         1 5BG       0.043200
     58 H4          -3.9250     3.4740    -1.4620 ha         1 5BG       0.132000
     59 H5          -8.6720     0.4680    -1.3320 h1         1 5BG       0.031367
     60 H6          -9.8140     1.7580    -0.9200 h1         1 5BG       0.031367
     61 H7          -8.5200     2.0670    -2.0910 h1         1 5BG       0.031367
     62 H8          -5.4850    -1.3050     1.9320 h1         1 5BG       0.043200
     63 H9          -7.0420    -2.0740     1.5770 h1         1 5BG       0.043200
     64 H10         -5.7700    -2.0500     0.3440 h1         1 5BG       0.043200
     65 H11         -4.1380    -0.4000     0.3100 ha         1 5BG       0.132000
     66 H12         -2.0400     2.3410    -1.1880 hc         1 5BG       0.058700
     67 H13         -2.2450    -0.6660    -1.4610 hc         1 5BG       0.078700
     68 H14         -3.8690     0.4280    -2.9640 hc         1 5BG       0.038450
     69 H15         -2.6330     1.5380    -3.5300 hc         1 5BG       0.038450
     70 H16         -2.6320    -1.4990    -3.8690 hc         1 5BG       0.043700
     71 H17         -2.9300    -0.3210    -5.1340 hc         1 5BG       0.043700
     72 H18         -0.5840    -1.1890    -5.2150 hc         1 5BG       0.034700
     73 H19         -0.6220     0.5410    -4.9250 hc         1 5BG       0.034700
     74 H20         -0.2260    -1.6200    -2.8050 hc         1 5BG       0.043700
     75 H21          0.9950    -0.5030    -3.3860 hc         1 5BG       0.043700
     76 H22         -0.2800     1.4210    -2.5020 hc         1 5BG       0.038450
     77 H23          0.0660     0.2690    -1.2290 hc         1 5BG       0.038450
     78 H24         -0.6720     4.0980     1.3570 h1         1 5BG       0.050200
     79 H25         -1.8610     3.7240     0.1360 h1         1 5BG       0.050200
     80 H26         -2.9230     4.7300     2.1670 hc         1 5BG       0.050700
     81 H27         -3.5250     3.1150     1.8470 hc         1 5BG       0.050700
     82 H28         -1.4510     3.9410     3.9340 hc         1 5BG       0.040200
     83 H29         -3.0460     3.2850     4.2460 hc         1 5BG       0.040200
     84 H30         -1.1700     1.6220     4.5500 hc         1 5BG       0.072200
     85 H31         -2.3600     1.0750     3.3810 hc         1 5BG       0.072200
     86 H32          0.2020     2.5650     2.7020 h1         1 5BG       0.057700
     87 H33          1.1430     1.0500     0.7480 hn         1 5BG       0.309500
     88 H34          2.8240    -0.5770     2.3560 h1         1 5BG       0.062700
     89 H35          3.1140    -2.8200     2.7310 ha         1 5BG       0.124000
     90 H36          0.1770    -1.5930    -0.1370 ha         1 5BG       0.101000
     91 H37         -0.5240    -3.9350    -0.3910 ha         1 5BG       0.090000
     92 H38          0.5450    -5.7230     0.8820 ha         1 5BG       0.120000
     93 H39          1.1760    -6.8010     2.8240 h1         1 5BG       0.016200
     94 H40          2.3450    -7.0060     1.5220 h1         1 5BG       0.016200
     95 H42          3.9090    -1.1260     0.2000 hc         1 5BG       0.059200
     96 H43          2.6030    -0.3600    -0.6760 hc         1 5BG       0.059200
     97 H44          3.1760     1.8420     0.3950 hc         1 5BG       0.043700
     98 H45          4.4160     1.0520     1.3460 hc         1 5BG       0.043700
     99 H46          6.5230     0.4340     0.3580 ha         1 5BG       0.124000
    100 H47          3.4300     2.0520    -2.0970 ha         1 5BG       0.109000
    101 H48          5.0030     2.3060    -3.9430 ha         1 5BG       0.113000
    102 H49          6.4980     1.5300    -5.5580 h1         1 5BG       0.035367
    103 H50          6.8730     3.1710    -4.9900 h1         1 5BG       0.035367
    104 H51          8.1510     2.1580    -5.6840 h1         1 5BG       0.035367
    105 H52          9.9680    -0.0720    -0.5050 h1         1 5BG       0.041033
    106 H53          8.7950     0.8250     0.4770 h1         1 5BG       0.041033
    107 H54          8.4170    -0.8180    -0.0810 h1         1 5BG       0.041033
@<TRIPOS>BOND
     1     1     2 1   
     2     1    55 1   
     3     1    56 1   
     4     1    57 1   
     5     2     3 1   
     6     3     4 ar  
     7     3     5 ar  
     8     4    12 ar  
     9     4    58 1   
    10     5     6 1   
    11     5     8 ar  
    12     6     7 1   
    13     7    59 1   
    14     7    60 1   
    15     7    61 1   
    16     8     9 1   
    17     8    11 ar  
    18     9    10 1   
    19    10    62 1   
    20    10    63 1   
    21    10    64 1   
    22    11    12 ar  
    23    11    65 1   
    24    12    13 1   
    25    13    14 1   
    26    13    20 1   
    27    13    66 1   
    28    14    15 1   
    29    14    19 1   
    30    14    67 1   
    31    15    16 1   
    32    15    68 1   
    33    15    69 1   
    34    16    17 1   
    35    16    70 1   
    36    16    71 1   
    37    17    18 1   
    38    17    72 1   
    39    17    73 1   
    40    18    19 1   
    41    18    74 1   
    42    18    75 1   
    43    19    76 1   
    44    19    77 1   
    45    20    21 2   
    46    20    22 1   
    47    22    23 1   
    48    22    27 1   
    49    23    24 1   
    50    23    78 1   
    51    23    79 1   
    52    24    25 1   
    53    24    80 1   
    54    24    81 1   
    55    25    26 1   
    56    25    82 1   
    57    25    83 1   
    58    26    27 1   
    59    26    84 1   
    60    26    85 1   
    61    27    28 1   
    62    27    86 1   
    63    28    29 2   
    64    28    30 1   
    65    30    31 1   
    66    30    87 1   
    67    31    32 1   
    68    31    43 1   
    69    31    88 1   
    70    32    33 ar  
    71    32    34 ar  
    72    33    37 ar  
    73    33    89 1   
    74    34    35 ar  
    75    34    90 1   
    76    35    36 ar  
    77    35    91 1   
    78    36    37 ar  
    79    36    92 1   
    80    37    38 1   
    81    38    39 1   
    82    39    40 1   
    83    39    93 1   
    84    39    94 1   
    85    40    41 1   
    86    40    42 1   
    87    43    44 1   
    88    43    95 1   
    89    43    96 1   
    90    44    45 1   
    91    44    97 1   
    92    44    98 1   
    93    45    46 ar  
    94    45    47 ar  
    95    46    52 ar  
    96    46    99 1   
    97    47    48 ar  
    98    47   100 1   
    99    48    49 ar  
   100    48   101 1   
   101    49    50 1   
   102    49    52 ar  
   103    50    51 1   
   104    51   102 1   
   105    51   103 1   
   106    51   104 1   
   107    52    53 1   
   108    53    54 1   
   109    54   105 1   
   110    54   106 1   
   111    54   107 1   
@<TRIPOS>SUBSTRUCTURE
     1 5BG         1 TEMP              0 ****  ****    0 ROOT
