@<TRIPOS>MOLECULE
5BH
   81    84     1     0     0
SMALL
No Charge or Current Charge


@<TRIPOS>ATOM
      1 CAU         -5.9470    -0.6970     1.2470 c5         1 5BH      -0.084400
      2 CAO         -7.3350    -0.2240     0.7470 c5         1 5BH      -0.081900
      3 CAP         -6.9890     1.2160     0.2950 c5         1 5BH      -0.081900
      4 CAV         -5.7690     0.9530    -0.6280 c5         1 5BH      -0.084400
      5 CBL         -4.9840    -0.1890     0.1130 c5         1 5BH       0.045400
      6 CBA         -4.5280    -1.2960    -0.9230 c          1 5BH       0.618100
      7 OAE         -5.1000    -2.3540    -1.1380 o          1 5BH      -0.597100
      8 NAD         -3.3870    -1.0210    -1.5980 nt         1 5BH      -0.604000
      9 NAW         -3.8350     0.5050     0.7580 ns         1 5BH      -0.511900
     10 C           -2.9100    -0.2210     1.4980 c          1 5BH       0.616100
     11 O           -2.9750    -1.4380     1.6220 o          1 5BH      -0.572100
     12 CA          -1.7850     0.5990     2.2100 c6         1 5BH       0.010700
     13 CB          -1.8280     2.1480     2.0310 c6         1 5BH      -0.086400
     14 CAM         -0.8040     2.8320     2.9740 c6         1 5BH      -0.079400
     15 CAN          0.6110     2.2230     2.8100 c6         1 5BH      -0.111400
     16 CAT          0.5790     0.6810     2.9430 c6         1 5BH       0.090000
     17 N           -0.3890     0.1060     1.9720 n          1 5BH      -0.390800
     18 CBC          0.0200    -0.3670     0.6980 c          1 5BH       0.589100
     19 OAG         -0.6700    -0.1470    -0.2920 o          1 5BH      -0.579100
     20 CBJ          1.3560    -1.1460     0.5770 c3         1 5BH      -0.085400
     21 CBH          1.2420    -2.4360    -0.3070 c6         1 5BH      -0.047700
     22 CAQ          2.6050    -3.1840    -0.4190 c6         1 5BH      -0.073400
     23 CAK          2.4890    -4.4620    -1.2870 c6         1 5BH      -0.072900
     24 CAJ          1.3940    -5.4110    -0.7460 c6         1 5BH      -0.075400
     25 CAL          0.0340    -4.6830    -0.6400 c6         1 5BH      -0.072900
     26 CAR          0.1460    -3.4070     0.2300 c6         1 5BH      -0.073400
     27 CBD          2.4530    -0.1870     0.0940 ca         1 5BH      -0.014300
     28 CAI          3.5710     0.0710     0.9020 ca         1 5BH      -0.225500
     29 CAH          2.3630     0.4330    -1.1630 ca         1 5BH      -0.225500
     30 CBE          3.3640     1.3200    -1.6220 ca         1 5BH       0.158100
     31 OAX          3.2420     1.9190    -2.8660 os         1 5BH      -0.322600
     32 CAA          2.1240     1.6950    -3.7430 c3         1 5BH       0.143900
     33 CBG          4.4950     1.5880    -0.7910 ca         1 5BH       0.025100
     34 OAZ          5.5450     2.4440    -1.1290 os         1 5BH      -0.325100
     35 CAC          5.6450     3.1870    -2.3560 c3         1 5BH       0.147900
     36 CBF          4.5850     0.9520     0.4710 ca         1 5BH       0.158100
     37 OAY          5.6900     1.2210     1.2630 os         1 5BH      -0.322600
     38 CAB          5.8730     0.6400     2.5660 c3         1 5BH       0.143900
     39 H1          -5.7190    -0.2420     2.2190 hc         1 5BH       0.064700
     40 H2          -5.9020    -1.7820     1.3910 hc         1 5BH       0.064700
     41 H3          -7.7040    -0.8390    -0.0840 hc         1 5BH       0.046700
     42 H4          -8.0930    -0.2450     1.5380 hc         1 5BH       0.046700
     43 H5          -7.8170     1.6990    -0.2370 hc         1 5BH       0.046700
     44 H6          -6.7260     1.8580     1.1450 hc         1 5BH       0.046700
     45 H7          -6.1140     0.6120    -1.6120 hc         1 5BH       0.064700
     46 H8          -5.1790     1.8590    -0.8120 hc         1 5BH       0.064700
     47 H9          -2.8530    -0.1970    -1.3620 hn         1 5BH       0.311000
     48 H10         -3.0230    -1.6990    -2.2490 hn         1 5BH       0.311000
     49 H11         -3.6980     1.5070     0.7150 hn         1 5BH       0.319500
     50 H12         -2.0050     0.4160     3.2710 h1         1 5BH       0.059700
     51 H13         -1.6080     2.4120     0.9860 hc         1 5BH       0.070200
     52 H14         -2.8310     2.5360     2.2580 hc         1 5BH       0.070200
     53 H15         -0.7740     3.9120     2.7760 hc         1 5BH       0.043700
     54 H16         -1.1330     2.7160     4.0160 hc         1 5BH       0.043700
     55 H17          1.0180     2.4930     1.8250 hc         1 5BH       0.055200
     56 H18          1.2930     2.6480     3.5580 hc         1 5BH       0.055200
     57 H19          1.5900     0.2860     2.7990 h1         1 5BH       0.054200
     58 H20          0.2700     0.4070     3.9620 h1         1 5BH       0.054200
     59 H21          1.6250    -1.4680     1.5880 hc         1 5BH       0.063700
     60 H22          0.9460    -2.1100    -1.3140 hc         1 5BH       0.074700
     61 H23          3.3670    -2.5270    -0.8580 hc         1 5BH       0.040200
     62 H24          2.9660    -3.4530     0.5830 hc         1 5BH       0.040200
     63 H25          2.2580    -4.1830    -2.3250 hc         1 5BH       0.041200
     64 H26          3.4550    -4.9840    -1.3120 hc         1 5BH       0.041200
     65 H27          1.3000    -6.2860    -1.4040 hc         1 5BH       0.038200
     66 H28          1.6890    -5.7920     0.2410 hc         1 5BH       0.038200
     67 H29         -0.3240    -4.4160    -1.6440 hc         1 5BH       0.041200
     68 H30         -0.7180    -5.3600    -0.2120 hc         1 5BH       0.041200
     69 H31          0.3740    -3.6890     1.2670 hc         1 5BH       0.040200
     70 H32         -0.8320    -2.9090     0.2530 hc         1 5BH       0.040200
     71 H33          3.6440    -0.4250     1.8640 ha         1 5BH       0.129500
     72 H34          1.4970     0.2130    -1.7780 ha         1 5BH       0.129500
     73 H35          2.2440     2.2760    -4.6660 h1         1 5BH       0.043533
     74 H36          2.0490     0.6350    -4.0180 h1         1 5BH       0.043533
     75 H37          1.1850     2.0050    -3.2670 h1         1 5BH       0.043533
     76 H38          5.6770     2.5140    -3.2220 h1         1 5BH       0.033033
     77 H39          4.8010     3.8790    -2.4660 h1         1 5BH       0.033033
     78 H40          6.5670     3.7820    -2.3620 h1         1 5BH       0.033033
     79 H41          5.0510     0.9200     3.2370 h1         1 5BH       0.043533
     80 H42          5.9220    -0.4550     2.5020 h1         1 5BH       0.043533
     81 H43          6.8110     0.9950     3.0120 h1         1 5BH       0.043533
@<TRIPOS>BOND
     1     1     2 1   
     2     1     5 1   
     3     1    39 1   
     4     1    40 1   
     5     2     3 1   
     6     2    41 1   
     7     2    42 1   
     8     3     4 1   
     9     3    43 1   
    10     3    44 1   
    11     4     5 1   
    12     4    45 1   
    13     4    46 1   
    14     5     6 1   
    15     5     9 1   
    16     6     7 2   
    17     6     8 1   
    18     8    47 1   
    19     8    48 1   
    20     9    10 1   
    21     9    49 1   
    22    10    11 2   
    23    10    12 1   
    24    12    13 1   
    25    12    17 1   
    26    12    50 1   
    27    13    14 1   
    28    13    51 1   
    29    13    52 1   
    30    14    15 1   
    31    14    53 1   
    32    14    54 1   
    33    15    16 1   
    34    15    55 1   
    35    15    56 1   
    36    16    17 1   
    37    16    57 1   
    38    16    58 1   
    39    17    18 1   
    40    18    19 2   
    41    18    20 1   
    42    20    21 1   
    43    20    27 1   
    44    20    59 1   
    45    21    22 1   
    46    21    26 1   
    47    21    60 1   
    48    22    23 1   
    49    22    61 1   
    50    22    62 1   
    51    23    24 1   
    52    23    63 1   
    53    23    64 1   
    54    24    25 1   
    55    24    65 1   
    56    24    66 1   
    57    25    26 1   
    58    25    67 1   
    59    25    68 1   
    60    26    69 1   
    61    26    70 1   
    62    27    28 ar  
    63    27    29 ar  
    64    28    36 ar  
    65    28    71 1   
    66    29    30 ar  
    67    29    72 1   
    68    30    31 1   
    69    30    33 ar  
    70    31    32 1   
    71    32    73 1   
    72    32    74 1   
    73    32    75 1   
    74    33    34 1   
    75    33    36 ar  
    76    34    35 1   
    77    35    76 1   
    78    35    77 1   
    79    35    78 1   
    80    36    37 1   
    81    37    38 1   
    82    38    79 1   
    83    38    80 1   
    84    38    81 1   
@<TRIPOS>SUBSTRUCTURE
     1 5BH         1 TEMP              0 ****  ****    0 ROOT
