@<TRIPOS>MOLECULE
5BH
   81    84     1     0     0
SMALL
abcg2


@<TRIPOS>ATOM
      1 CAU         -4.3840    -0.8640    -1.0600 c5         1 5BH      -0.084400
      2 CAO         -4.9160    -2.2490    -0.6820 c5         1 5BH      -0.081900
      3 CAP         -4.7620    -2.2930     0.8340 c5         1 5BH      -0.081900
      4 CAV         -5.2230    -0.9010     1.2490 c5         1 5BH      -0.084400
      5 CBL         -4.6540     0.0520     0.1620 c5         1 5BH       0.045400
      6 CBA         -5.7250     1.1140    -0.1150 c          1 5BH       0.618100
      7 OAE         -6.5210     1.0020    -1.0350 o          1 5BH      -0.597100
      8 NAD         -5.7990     2.0970     0.7930 nt         1 5BH      -0.604000
      9 NAW         -3.4420     0.6720     0.6690 ns         1 5BH      -0.511900
     10 C           -2.7620     1.5910    -0.0470 c          1 5BH       0.616100
     11 O           -3.1970     2.0580    -1.0850 o          1 5BH      -0.572100
     12 CA          -1.5110     2.1340     0.6350 c6         1 5BH       0.010700
     13 CB          -0.7330     3.1720    -0.1610 c6         1 5BH      -0.086400
     14 CAM          0.3400     3.7770     0.7500 c6         1 5BH      -0.079400
     15 CAN          1.2010     2.7120     1.4290 c6         1 5BH      -0.111400
     16 CAT          0.3430     1.6330     2.0850 c6         1 5BH       0.090000
     17 N           -0.6050     1.0920     1.1140 n          1 5BH      -0.390800
     18 CBC         -0.2880     0.0910     0.2470 c          1 5BH       0.589100
     19 OAG         -0.8650    -0.0090    -0.8260 o          1 5BH      -0.579100
     20 CBJ          0.7850    -0.9180     0.6520 c3         1 5BH      -0.085400
     21 CBH          0.4580    -2.3080     0.0740 c6         1 5BH      -0.047700
     22 CAQ          1.5920    -3.3090     0.2890 c6         1 5BH      -0.073400
     23 CAK          1.2340    -4.6780    -0.2840 c6         1 5BH      -0.072900
     24 CAJ         -0.0640    -5.2190     0.3060 c6         1 5BH      -0.075400
     25 CAL         -1.2010    -4.2210     0.1260 c6         1 5BH      -0.072900
     26 CAR         -0.8300    -2.8540     0.6910 c6         1 5BH      -0.073400
     27 CBD          2.1370    -0.3940     0.2110 ca         1 5BH      -0.014300
     28 CAI          3.1680    -0.3150     1.1370 ca         1 5BH      -0.225500
     29 CAH          2.3380     0.0190    -1.1000 ca         1 5BH      -0.225500
     30 CBE          3.5750     0.5310    -1.4820 ca         1 5BH       0.158100
     31 OAX          3.8650     0.9690    -2.7200 os         1 5BH      -0.322600
     32 CAA          2.8370     0.9640    -3.6910 c3         1 5BH       0.143900
     33 CBG          4.6160     0.6200    -0.5540 ca         1 5BH       0.025100
     34 OAZ          5.8290     1.1090    -0.9270 os         1 5BH      -0.325100
     35 CAC          5.9470     2.5190    -0.7970 c3         1 5BH       0.147900
     36 CBF          4.4080     0.1980     0.7600 ca         1 5BH       0.158100
     37 OAY          5.4590     0.3280     1.5870 os         1 5BH      -0.322600
     38 CAB          5.2990    -0.0460     2.9400 c3         1 5BH       0.143900
     39 H1          -3.3070    -0.9160    -1.2200 hc         1 5BH       0.064700
     40 H2          -4.8290    -0.4780    -1.9740 hc         1 5BH       0.064700
     41 H3          -5.9730    -2.3410    -0.9460 hc         1 5BH       0.046700
     42 H4          -4.3820    -3.0510    -1.1930 hc         1 5BH       0.046700
     43 H5          -5.3430    -3.0840     1.3100 hc         1 5BH       0.046700
     44 H6          -3.7150    -2.4480     1.1060 hc         1 5BH       0.046700
     45 H7          -6.3140    -0.8700     1.2290 hc         1 5BH       0.064700
     46 H8          -4.9180    -0.6050     2.2540 hc         1 5BH       0.064700
     47 H9          -5.1240     2.1930     1.5310 hn         1 5BH       0.311000
     48 H10         -6.5070     2.8080     0.7120 hn         1 5BH       0.311000
     49 H11         -3.0150     0.2860     1.4970 hn         1 5BH       0.319500
     50 H12         -1.8830     2.6310     1.5410 h1         1 5BH       0.059700
     51 H13         -0.2810     2.7080    -1.0410 hc         1 5BH       0.070200
     52 H14         -1.4010     3.9580    -0.5160 hc         1 5BH       0.070200
     53 H15          0.9740     4.4590     0.1800 hc         1 5BH       0.043700
     54 H16         -0.1560     4.3810     1.5170 hc         1 5BH       0.043700
     55 H17          1.8640     2.2410     0.6990 hc         1 5BH       0.055200
     56 H18          1.8410     3.1720     2.1860 hc         1 5BH       0.055200
     57 H19          0.9560     0.8420     2.5100 h1         1 5BH       0.054200
     58 H20         -0.2360     2.0530     2.9100 h1         1 5BH       0.054200
     59 H21          0.8010    -1.0170     1.7420 hc         1 5BH       0.063700
     60 H22          0.3060    -2.1990    -1.0060 hc         1 5BH       0.074700
     61 H23          2.5140    -2.9460    -0.1710 hc         1 5BH       0.040200
     62 H24          1.7960    -3.4070     1.3620 hc         1 5BH       0.040200
     63 H25          1.1270    -4.5950    -1.3720 hc         1 5BH       0.041200
     64 H26          2.0530    -5.3800    -0.1090 hc         1 5BH       0.041200
     65 H27         -0.3210    -6.1770    -0.1520 hc         1 5BH       0.038200
     66 H28          0.0790    -5.4120     1.3750 hc         1 5BH       0.038200
     67 H29         -1.4380    -4.1200    -0.9390 hc         1 5BH       0.041200
     68 H30         -2.1110    -4.5860     0.6100 hc         1 5BH       0.041200
     69 H31         -0.6930    -2.9370     1.7760 hc         1 5BH       0.040200
     70 H32         -1.6550    -2.1580     0.5320 hc         1 5BH       0.040200
     71 H33          2.9880    -0.6410     2.1530 ha         1 5BH       0.129500
     72 H34          1.5240    -0.0420    -1.8100 ha         1 5BH       0.129500
     73 H35          3.2730     1.3650    -4.6030 h1         1 5BH       0.043533
     74 H36          2.4660    -0.0440    -3.8920 h1         1 5BH       0.043533
     75 H37          1.9960     1.5970    -3.3970 h1         1 5BH       0.043533
     76 H38          5.2550     3.0460    -1.4570 h1         1 5BH       0.033033
     77 H39          5.7720     2.8480     0.2300 h1         1 5BH       0.033033
     78 H40          6.9650     2.7840    -1.0780 h1         1 5BH       0.033033
     79 H41          4.5260     0.5440     3.4380 h1         1 5BH       0.043533
     80 H42          5.0560    -1.1060     3.0460 h1         1 5BH       0.043533
     81 H43          6.2530     0.1440     3.4270 h1         1 5BH       0.043533
@<TRIPOS>BOND
     1     1     2 1   
     2     1     5 1   
     3     1    39 1   
     4     1    40 1   
     5     2     3 1   
     6     2    41 1   
     7     2    42 1   
     8     3     4 1   
     9     3    43 1   
    10     3    44 1   
    11     4     5 1   
    12     4    45 1   
    13     4    46 1   
    14     5     6 1   
    15     5     9 1   
    16     6     7 2   
    17     6     8 1   
    18     8    47 1   
    19     8    48 1   
    20     9    10 1   
    21     9    49 1   
    22    10    11 2   
    23    10    12 1   
    24    12    13 1   
    25    12    17 1   
    26    12    50 1   
    27    13    14 1   
    28    13    51 1   
    29    13    52 1   
    30    14    15 1   
    31    14    53 1   
    32    14    54 1   
    33    15    16 1   
    34    15    55 1   
    35    15    56 1   
    36    16    17 1   
    37    16    57 1   
    38    16    58 1   
    39    17    18 1   
    40    18    19 2   
    41    18    20 1   
    42    20    21 1   
    43    20    27 1   
    44    20    59 1   
    45    21    22 1   
    46    21    26 1   
    47    21    60 1   
    48    22    23 1   
    49    22    61 1   
    50    22    62 1   
    51    23    24 1   
    52    23    63 1   
    53    23    64 1   
    54    24    25 1   
    55    24    65 1   
    56    24    66 1   
    57    25    26 1   
    58    25    67 1   
    59    25    68 1   
    60    26    69 1   
    61    26    70 1   
    62    27    28 ar  
    63    27    29 ar  
    64    28    36 ar  
    65    28    71 1   
    66    29    30 ar  
    67    29    72 1   
    68    30    31 1   
    69    30    33 ar  
    70    31    32 1   
    71    32    73 1   
    72    32    74 1   
    73    32    75 1   
    74    33    34 1   
    75    33    36 ar  
    76    34    35 1   
    77    35    76 1   
    78    35    77 1   
    79    35    78 1   
    80    36    37 1   
    81    37    38 1   
    82    38    79 1   
    83    38    80 1   
    84    38    81 1   
@<TRIPOS>SUBSTRUCTURE
     1 5BH         1 TEMP              0 ****  ****    0 ROOT
