@<TRIPOS>MOLECULE
5BI
   59    61     1     0     0
SMALL
No Charge or Current Charge


@<TRIPOS>ATOM
      1 N1          17.2810   -14.1850    -0.7650 no         1 5BI       0.677200
      2 C6          20.3460    -5.9710    -0.1940 c3         1 5BI       0.167600
      3 C2          18.8790    -9.4930    -2.3670 c6         1 5BI       0.152300
      4 O2          18.6800   -10.3170    -1.1820 os         1 5BI      -0.387100
      5 C4          18.3150    -7.2880    -1.1640 c6         1 5BI       0.129300
      6 O4          18.0440    -7.8920     0.1200 oh         1 5BI      -0.683000
      7 C5          19.8260    -6.9170    -1.3260 c6         1 5BI       0.150300
      8 O5          20.6390    -8.1180    -1.3470 os         1 5BI      -0.464000
      9 C1          20.3530    -8.9840    -2.4650 c6         1 5BI       0.381300
     10 O1          21.2900   -10.0750    -2.4640 os         1 5BI      -0.446000
     11 C7          22.6690    -9.7290    -2.6810 c3         1 5BI       0.149900
     12 C3          17.9190    -8.2670    -2.3250 c6         1 5BI       0.171300
     13 O3          16.5560    -8.7390    -2.2020 os         1 5BI      -0.417100
     14 C9          15.4890    -7.8970    -2.3680 c          1 5BI       0.610700
     15 O8          15.6010    -6.7280    -2.7140 o          1 5BI      -0.500000
     16 O7          19.1410   -12.2980    -2.2440 o          1 5BI      -0.450000
     17 CA1         18.7550   -12.3200     0.1340 ca         1 5BI      -0.031600
     18 CB1         14.1530    -8.5680    -2.1550 ca         1 5BI      -0.158600
     19 CB2         12.9600    -7.8310    -2.3220 ca         1 5BI      -0.042000
     20 CB6         14.0650    -9.9320    -1.7880 ca         1 5BI      -0.042000
     21 CB3         11.7090    -8.4430    -2.1260 ca         1 5BI      -0.130500
     22 CB5         12.8110   -10.5370    -1.5940 ca         1 5BI      -0.130500
     23 CB4         11.6280    -9.7970    -1.7590 ca         1 5BI      -0.040300
     24 C10         10.2730   -10.4570    -1.5520 c3         1 5BI      -0.053800
     25 CA6         19.3980   -11.7130     1.2330 ca         1 5BI      -0.074000
     26 CA2         18.0440   -13.5340     0.3390 ca         1 5BI      -0.131200
     27 CA5         19.3590   -12.3010     2.5070 ca         1 5BI      -0.035000
     28 CA3         18.0180   -14.1240     1.6220 ca         1 5BI      -0.018000
     29 CA4         18.6800   -13.5190     2.7120 ca         1 5BI      -0.185300
     30 C11         18.6280   -14.1620     4.1020 c3         1 5BI       0.349300
     31 ON1         16.5130   -13.4740    -1.4260 o          1 5BI      -0.379000
     32 ON2         17.2930   -15.4210    -0.8210 o          1 5BI      -0.379000
     33 F1          18.6170   -15.5140     4.0390 f          1 5BI      -0.105667
     34 F2          17.5170   -13.7890     4.7740 f          1 5BI      -0.105667
     35 F3          19.6880   -13.8220     4.8700 f          1 5BI      -0.105667
     36 H1          19.7020    -5.0810    -0.1710 h1         1 5BI       0.037200
     37 H2          20.2240    -6.4840     0.7700 h1         1 5BI       0.037200
     38 H3          18.6380   -10.0750    -3.2670 h1         1 5BI       0.097700
     39 H4          17.7320    -6.3610    -1.2650 h1         1 5BI       0.055700
     40 H5          18.2330    -8.8530     0.0020 ho         1 5BI       0.499000
     41 H6          19.9590    -6.3860    -2.2810 h1         1 5BI       0.055700
     42 H7          20.4710    -8.4180    -3.4010 h2         1 5BI       0.033700
     43 H8          23.2920   -10.6330    -2.6880 h1         1 5BI       0.043033
     44 H9          22.7970    -9.2190    -3.6450 h1         1 5BI       0.043033
     45 H10         23.0400    -9.0680    -1.8870 h1         1 5BI       0.043033
     46 H11         18.0110    -7.7330    -3.2830 h1         1 5BI       0.076700
     47 H12         21.9810    -5.0650     0.4300 ho         1 5BI       0.507000
     48 H13         12.9980    -6.7810    -2.6040 ha         1 5BI       0.139000
     49 H14         14.9620   -10.5330    -1.6500 ha         1 5BI       0.139000
     50 H15         10.8010    -7.8590    -2.2610 ha         1 5BI       0.119000
     51 H16         12.7630   -11.5870    -1.3140 ha         1 5BI       0.119000
     52 H17          9.9030   -10.8910    -2.4880 hc         1 5BI       0.047367
     53 H18         10.3300   -11.2620    -0.8090 hc         1 5BI       0.047367
     54 H19          9.5270    -9.7360    -1.1980 hc         1 5BI       0.047367
     55 H20         19.9510   -10.7850     1.0960 ha         1 5BI       0.159000
     56 H21         19.8660   -11.8040     3.3320 ha         1 5BI       0.143000
     57 H22         17.4630   -15.0500     1.7760 ha         1 5BI       0.167000
     58 C8          18.8770   -11.6750    -1.2240 c          1 5BI       0.619700
     59 O6          21.7230    -5.5780    -0.3710 oh         1 5BI      -0.719000
@<TRIPOS>BOND
     1     1    26 1   
     2     1    31 1   
     3     1    32 1   
     4     2     7 1   
     5     2    36 1   
     6     2    37 1   
     7     2    59 1   
     8     3     4 1   
     9     3     9 1   
    10     3    12 1   
    11     3    38 1   
    12     4    58 1   
    13     5     6 1   
    14     5     7 1   
    15     5    12 1   
    16     5    39 1   
    17     6    40 1   
    18     7     8 1   
    19     7    41 1   
    20     8     9 1   
    21     9    10 1   
    22     9    42 1   
    23    10    11 1   
    24    11    43 1   
    25    11    44 1   
    26    11    45 1   
    27    12    13 1   
    28    12    46 1   
    29    13    14 1   
    30    14    15 2   
    31    14    18 1   
    32    16    58 2   
    33    17    25 ar  
    34    17    26 ar  
    35    17    58 1   
    36    18    19 ar  
    37    18    20 ar  
    38    19    21 ar  
    39    19    48 1   
    40    20    22 ar  
    41    20    49 1   
    42    21    23 ar  
    43    21    50 1   
    44    22    23 ar  
    45    22    51 1   
    46    23    24 1   
    47    24    52 1   
    48    24    53 1   
    49    24    54 1   
    50    25    27 ar  
    51    25    55 1   
    52    26    28 ar  
    53    27    29 ar  
    54    27    56 1   
    55    28    29 ar  
    56    28    57 1   
    57    29    30 1   
    58    30    33 1   
    59    30    34 1   
    60    30    35 1   
    61    47    59 1   
@<TRIPOS>SUBSTRUCTURE
     1 5BI         1 TEMP              0 ****  ****    0 ROOT
