@<TRIPOS>MOLECULE
5BI
   59    61     1     0     0
SMALL
abcg2


@<TRIPOS>ATOM
      1 N1          16.5410   -13.4980    -0.3000 no         1 5BI       0.677200
      2 C6          20.2280    -5.9200    -0.1370 c3         1 5BI       0.167600
      3 C2          18.8600    -9.4430    -2.1900 c6         1 5BI       0.152300
      4 O2          18.7050   -10.2740    -1.0220 os         1 5BI      -0.387100
      5 C4          18.2570    -7.2390    -1.0340 c6         1 5BI       0.129300
      6 O4          17.9730    -7.7710     0.2540 oh         1 5BI      -0.683000
      7 C5          19.7390    -6.8720    -1.2030 c6         1 5BI       0.150300
      8 O5          20.5530    -8.0470    -1.1600 os         1 5BI      -0.464000
      9 C1          20.2990    -8.9270    -2.2410 c6         1 5BI       0.381300
     10 O1          21.1590   -10.0050    -2.1580 os         1 5BI      -0.446000
     11 C7          22.5230    -9.6910    -2.4580 c3         1 5BI       0.149900
     12 C3          17.9070    -8.2610    -2.1180 c6         1 5BI       0.171300
     13 O3          16.5830    -8.7800    -1.9600 os         1 5BI      -0.417100
     14 C9          15.5700    -8.1090    -2.5480 c          1 5BI       0.610700
     15 O8          15.7390    -7.0970    -3.1960 o          1 5BI      -0.500000
     16 O7          18.6230   -12.1780    -2.2450 o          1 5BI      -0.450000
     17 CA1         18.6640   -12.2870     0.1390 ca         1 5BI      -0.031600
     18 CB1         14.2600    -8.7550    -2.3160 ca         1 5BI      -0.158600
     19 CB2         13.1280    -8.2170    -2.9340 ca         1 5BI      -0.042000
     20 CB6         14.1230    -9.8810    -1.5020 ca         1 5BI      -0.042000
     21 CB3         11.8870    -8.8010    -2.7460 ca         1 5BI      -0.130500
     22 CB5         12.8760   -10.4580    -1.3180 ca         1 5BI      -0.130500
     23 CB4         11.7390    -9.9340    -1.9380 ca         1 5BI      -0.040300
     24 C10         10.3960   -10.5820    -1.7640 c3         1 5BI      -0.053800
     25 CA6         19.7380   -12.0420     0.9910 ca         1 5BI      -0.074000
     26 CA2         17.7400   -13.2590     0.5140 ca         1 5BI      -0.131200
     27 CA5         19.8820   -12.7560     2.1710 ca         1 5BI      -0.035000
     28 CA3         17.8680   -13.9890     1.6830 ca         1 5BI      -0.018000
     29 CA4         18.9480   -13.7300     2.5120 ca         1 5BI      -0.185300
     30 C11         19.0990   -14.4690     3.8140 c3         1 5BI       0.349300
     31 ON1         16.0710   -12.5470    -0.9060 o          1 5BI      -0.379000
     32 ON2         16.0700   -14.6250    -0.3050 o          1 5BI      -0.379000
     33 F1          18.3250   -15.5680     3.8760 f          1 5BI      -0.105667
     34 F2          18.7620   -13.6900     4.8680 f          1 5BI      -0.105667
     35 F3          20.3730   -14.8650     4.0180 f          1 5BI      -0.105667
     36 H1          19.4970    -5.1110    -0.0280 h1         1 5BI       0.037200
     37 H2          20.3040    -6.4500     0.8160 h1         1 5BI       0.037200
     38 H3          18.6500   -10.0370    -3.0770 h1         1 5BI       0.097700
     39 H4          17.6580    -6.3430    -1.2110 h1         1 5BI       0.055700
     40 H5          17.7010    -7.0480     0.8300 ho         1 5BI       0.499000
     41 H6          19.8580    -6.3880    -2.1830 h1         1 5BI       0.055700
     42 H7          20.4380    -8.3810    -3.1880 h2         1 5BI       0.033700
     43 H8          23.0660   -10.6330    -2.4460 h1         1 5BI       0.043033
     44 H9          22.5990    -9.2340    -3.4490 h1         1 5BI       0.043033
     45 H10         22.9410    -9.0150    -1.7110 h1         1 5BI       0.043033
     46 H11         17.9750    -7.7440    -3.0760 h1         1 5BI       0.076700
     47 H12         21.8770    -4.9250     0.2080 ho         1 5BI       0.507000
     48 H13         13.2320    -7.3420    -3.5620 ha         1 5BI       0.139000
     49 H14         14.9890   -10.3040    -1.0140 ha         1 5BI       0.139000
     50 H15         11.0170    -8.3760    -3.2300 ha         1 5BI       0.119000
     51 H16         12.7800   -11.3300    -0.6820 ha         1 5BI       0.119000
     52 H17         10.2020   -11.2810    -2.5830 hc         1 5BI       0.047367
     53 H18         10.3460   -11.1450    -0.8320 hc         1 5BI       0.047367
     54 H19          9.5950    -9.8420    -1.7720 hc         1 5BI       0.047367
     55 H20         20.4710   -11.2970     0.7150 ha         1 5BI       0.159000
     56 H21         20.7230   -12.5560     2.8210 ha         1 5BI       0.143000
     57 H22         17.1210   -14.7250     1.9400 ha         1 5BI       0.167000
     58 C8          18.6380   -11.5940    -1.1900 c          1 5BI       0.619700
     59 O6          21.4970    -5.4050    -0.5380 oh         1 5BI      -0.719000
@<TRIPOS>BOND
     1     1    26 1   
     2     1    31 1   
     3     1    32 1   
     4     2     7 1   
     5     2    36 1   
     6     2    37 1   
     7     2    59 1   
     8     3     4 1   
     9     3     9 1   
    10     3    12 1   
    11     3    38 1   
    12     4    58 1   
    13     5     6 1   
    14     5     7 1   
    15     5    12 1   
    16     5    39 1   
    17     6    40 1   
    18     7     8 1   
    19     7    41 1   
    20     8     9 1   
    21     9    10 1   
    22     9    42 1   
    23    10    11 1   
    24    11    43 1   
    25    11    44 1   
    26    11    45 1   
    27    12    13 1   
    28    12    46 1   
    29    13    14 1   
    30    14    15 2   
    31    14    18 1   
    32    16    58 2   
    33    17    25 ar  
    34    17    26 ar  
    35    17    58 1   
    36    18    19 ar  
    37    18    20 ar  
    38    19    21 ar  
    39    19    48 1   
    40    20    22 ar  
    41    20    49 1   
    42    21    23 ar  
    43    21    50 1   
    44    22    23 ar  
    45    22    51 1   
    46    23    24 1   
    47    24    52 1   
    48    24    53 1   
    49    24    54 1   
    50    25    27 ar  
    51    25    55 1   
    52    26    28 ar  
    53    27    29 ar  
    54    27    56 1   
    55    28    29 ar  
    56    28    57 1   
    57    29    30 1   
    58    30    33 1   
    59    30    34 1   
    60    30    35 1   
    61    47    59 1   
@<TRIPOS>SUBSTRUCTURE
     1 5BI         1 TEMP              0 ****  ****    0 ROOT
