@<TRIPOS>MOLECULE
5BJ
   34    37     1     0     0
SMALL
abcg2


@<TRIPOS>ATOM
      1 C1          -0.9870     0.8120     0.0310 ca         1 5BJ      -0.083800
      2 C2           0.2280     1.5220    -0.0060 cp         1 5BJ      -0.024000
      3 C3          -2.1830     1.4650    -0.3560 ca         1 5BJ      -0.077200
      4 C11          2.1460     1.4150     1.5330 ca         1 5BJ      -0.118000
      5 C12         -1.0020     3.4710    -0.7970 ca         1 5BJ      -0.134000
      6 C14          3.2770    -0.7770     0.2310 ca         1 5BJ      -0.035000
      7 C15          1.4930    -0.7550    -1.4280 ca         1 5BJ      -0.066000
      8 C16          3.3490     0.8550     2.0060 ca         1 5BJ      -0.107000
      9 C19          3.8990    -0.2240     1.3750 ca         1 5BJ      -0.118000
     10 C20          3.8490    -1.8780    -0.4500 ca         1 5BJ      -0.116000
     11 C21          2.0730    -1.8160    -2.0700 ca         1 5BJ      -0.124000
     12 C22          3.2610    -2.3900    -1.5740 ca         1 5BJ      -0.107000
     13 C4          -1.3510    -0.5120     0.4150 cc         1 5BJ      -0.265200
     14 C5           1.4970     0.9010     0.4350 cp         1 5BJ       0.019000
     15 C6           0.1950     2.8440    -0.4160 ca         1 5BJ      -0.142000
     16 N7          -3.1960     0.5700    -0.2140 na         1 5BJ      -0.196700
     17 C8          -2.2050     2.7950    -0.7740 ca         1 5BJ      -0.118000
     18 C9          -2.7070    -0.6200     0.2520 cd         1 5BJ      -0.088300
     19 C10          2.0680    -0.2100    -0.2540 ca         1 5BJ      -0.021000
     20 O17         -4.8330    -1.5800     0.2570 o          1 5BJ      -0.709500
     21 O18         -3.0970    -2.8210     0.9340 o          1 5BJ      -0.709500
     22 H1           1.7150     2.2590     2.0570 ha         1 5BJ       0.114000
     23 H2          -0.9760     4.5050    -1.1150 ha         1 5BJ       0.090000
     24 H3           0.5840    -0.3220    -1.8250 ha         1 5BJ       0.137000
     25 H4           3.8280     1.2820     2.8770 ha         1 5BJ       0.100000
     26 H5           4.8210    -0.6650     1.7360 ha         1 5BJ       0.100000
     27 H6           4.7680    -2.3080    -0.0700 ha         1 5BJ       0.099000
     28 H7           1.6190    -2.2150    -2.9680 ha         1 5BJ       0.109000
     29 H8           3.7090    -3.2290    -2.0900 ha         1 5BJ       0.100000
     30 H9          -0.6950    -1.2910     0.7670 ha         1 5BJ       0.214000
     31 H10          1.1180     3.4090    -0.4540 ha         1 5BJ       0.093000
     32 H11         -4.1720     0.7360    -0.3950 hn         1 5BJ       0.361000
     33 H12         -3.1300     3.2790    -1.0640 ha         1 5BJ       0.099000
     34 C13         -3.6280    -1.7820     0.5040 c          1 5BJ       0.726200
@<TRIPOS>BOND
     1     1     2 ar  
     2     1     3 ar  
     3     1    13 1   
     4     2    14 1   
     5     2    15 ar  
     6     3    16 1   
     7     3    17 ar  
     8     4     8 ar  
     9     4    14 ar  
    10     4    22 1   
    11     5    15 ar  
    12     5    17 ar  
    13     5    23 1   
    14     6     9 ar  
    15     6    10 ar  
    16     6    19 ar  
    17     7    11 ar  
    18     7    19 ar  
    19     7    24 1   
    20     8     9 ar  
    21     8    25 1   
    22     9    26 1   
    23    10    12 ar  
    24    10    27 1   
    25    11    12 ar  
    26    11    28 1   
    27    12    29 1   
    28    13    18 2   
    29    13    30 1   
    30    14    19 ar  
    31    15    31 1   
    32    16    18 1   
    33    16    32 1   
    34    17    33 1   
    35    18    34 1   
    36    20    34 1   
    37    21    34 1   
@<TRIPOS>SUBSTRUCTURE
     1 5BJ         1 TEMP              0 ****  ****    0 ROOT
