@<TRIPOS>MOLECULE
5BJ
   34    37     1     0     0
SMALL
No Charge or Current Charge


@<TRIPOS>ATOM
      1 C1          -1.0140     0.8810     0.0180 ca         1 5BJ      -0.083800
      2 C2           0.2250     1.5640     0.0040 cp         1 5BJ      -0.024000
      3 C3          -2.1830     1.4840    -0.3660 ca         1 5BJ      -0.077200
      4 C11          2.1780     1.4290     1.5640 ca         1 5BJ      -0.118000
      5 C12         -1.0060     3.5440    -0.8030 ca         1 5BJ      -0.134000
      6 C14          3.2640    -0.7930     0.2320 ca         1 5BJ      -0.035000
      7 C15          1.4610    -0.7490    -1.4050 ca         1 5BJ      -0.066000
      8 C16          3.3680     0.8480     2.0280 ca         1 5BJ      -0.107000
      9 C19          3.9070    -0.2640     1.3660 ca         1 5BJ      -0.118000
     10 C20          3.8270    -1.9010    -0.4290 ca         1 5BJ      -0.116000
     11 C21          2.0300    -1.8540    -2.0600 ca         1 5BJ      -0.124000
     12 C22          3.2100    -2.4330    -1.5710 ca         1 5BJ      -0.107000
     13 C4          -1.3620    -0.4580     0.3970 cc         1 5BJ      -0.265200
     14 C5           1.4990     0.9120     0.4350 cp         1 5BJ       0.019000
     15 C6           0.1990     2.9220    -0.4070 ca         1 5BJ      -0.142000
     16 N7          -3.2580     0.6130    -0.2670 na         1 5BJ      -0.196700
     17 C8          -2.2160     2.8210    -0.7870 ca         1 5BJ      -0.118000
     18 C9          -2.7370    -0.6120     0.2170 cd         1 5BJ      -0.088300
     19 C10          2.0630    -0.2090    -0.2450 ca         1 5BJ      -0.021000
     20 O17         -4.7160    -1.8590     0.2930 o          1 5BJ      -0.709500
     21 O18         -2.9140    -2.8520     0.9170 o          1 5BJ      -0.709500
     22 H1           1.7640     2.2860     2.0890 ha         1 5BJ       0.114000
     23 H2          -1.0020     4.5840    -1.1200 ha         1 5BJ       0.090000
     24 H3           0.5520    -0.3150    -1.8130 ha         1 5BJ       0.137000
     25 H4           3.8690     1.2570     2.9020 ha         1 5BJ       0.100000
     26 H5           4.8280    -0.7110     1.7320 ha         1 5BJ       0.100000
     27 H6           4.7470    -2.3500    -0.0590 ha         1 5BJ       0.099000
     28 H7           1.5540    -2.2610    -2.9500 ha         1 5BJ       0.109000
     29 H8           3.6490    -3.2890    -2.0790 ha         1 5BJ       0.100000
     30 H9          -0.6890    -1.2310     0.7620 ha         1 5BJ       0.214000
     31 H10          1.1240     3.4930    -0.4240 ha         1 5BJ       0.093000
     32 H11         -4.2290     0.8050    -0.4900 hn         1 5BJ       0.361000
     33 H12         -3.1490     3.2910    -1.0880 ha         1 5BJ       0.099000
     34 C13         -3.5090    -1.8680     0.4970 c          1 5BJ       0.726200
@<TRIPOS>BOND
     1     1     2 ar  
     2     1     3 ar  
     3     1    13 1   
     4     2    14 1   
     5     2    15 ar  
     6     3    16 1   
     7     3    17 ar  
     8     4     8 ar  
     9     4    14 ar  
    10     4    22 1   
    11     5    15 ar  
    12     5    17 ar  
    13     5    23 1   
    14     6     9 ar  
    15     6    10 ar  
    16     6    19 ar  
    17     7    11 ar  
    18     7    19 ar  
    19     7    24 1   
    20     8     9 ar  
    21     8    25 1   
    22     9    26 1   
    23    10    12 ar  
    24    10    27 1   
    25    11    12 ar  
    26    11    28 1   
    27    12    29 1   
    28    13    18 2   
    29    13    30 1   
    30    14    19 ar  
    31    15    31 1   
    32    16    18 1   
    33    16    32 1   
    34    17    33 1   
    35    18    34 1   
    36    20    34 1   
    37    21    34 1   
@<TRIPOS>SUBSTRUCTURE
     1 5BJ         1 TEMP              0 ****  ****    0 ROOT
