@<TRIPOS>MOLECULE
5BK
   32    35     1     0     0
SMALL
No Charge or Current Charge


@<TRIPOS>ATOM
      1 C1           0.7560    -3.6050    -0.4900 ca         1 5BK      -0.134000
      2 C2           1.9930    -2.9320    -0.5560 ca         1 5BK      -0.121000
      3 C3           0.8570    -0.8670     0.0010 ca         1 5BK      -0.078800
      4 C11         -0.4280    -2.8950    -0.1790 ca         1 5BK      -0.143000
      5 C12         -0.4090    -1.4940     0.0660 cp         1 5BK      -0.013000
      6 C13         -1.4850     1.1140    -1.4140 cc         1 5BK      -0.201200
      7 C15         -2.3110     2.1880    -1.7170 cd         1 5BK      -0.188100
      8 C16         -2.0660     0.4120    -0.3040 ca         1 5BK      -0.083800
      9 C17         -1.6620    -0.7510     0.3970 cp         1 5BK       0.054000
     10 C18         -2.5280    -1.2030     1.4280 ca         1 5BK      -0.149000
     11 C19         -3.7180    -0.5090     1.7450 ca         1 5BK      -0.095000
     12 C20         -4.0730     0.6500     1.0280 ca         1 5BK      -0.150000
     13 C21         -3.2220     1.0830     0.0030 ca         1 5BK      -0.051200
     14 C4           2.0040    -1.5560    -0.3010 ca         1 5BK      -0.077200
     15 N5           3.0910    -0.6930    -0.2850 na         1 5BK      -0.198700
     16 C6           2.6760     0.6140     0.0500 cc         1 5BK      -0.092300
     17 C7           1.3000     0.4900     0.2260 cd         1 5BK      -0.263200
     18 C8           3.4760     1.8680     0.2010 c          1 5BK       0.727200
     19 O9           2.9050     2.9070     0.5060 o          1 5BK      -0.712000
     20 O10          4.6830     1.8060     0.0120 o          1 5BK      -0.712000
     21 N14         -3.4080     2.1790    -0.8240 na         1 5BK      -0.234700
     22 H1           0.7120    -4.6750    -0.6780 ha         1 5BK       0.088000
     23 H2           2.9090    -3.4690    -0.7910 ha         1 5BK       0.098000
     24 H3          -1.3720    -3.4320    -0.1350 ha         1 5BK       0.092000
     25 H6          -2.2670    -2.0950     1.9920 ha         1 5BK       0.110000
     26 H7          -4.3620    -0.8720     2.5430 ha         1 5BK       0.096000
     27 H8          -4.9880     1.1890     1.2610 ha         1 5BK       0.098000
     28 H9           4.0510    -0.9590    -0.4800 hn         1 5BK       0.359000
     29 H10          0.6500     1.3150     0.5050 ha         1 5BK       0.214000
     30 H12         -4.1810     2.8370    -0.7980 hn         1 5BK       0.335000
     31 H4          -0.5660     0.8590    -1.9380 ha         1 5BK       0.224000
     32 H5          -2.2030     2.9450    -2.4910 h4         1 5BK       0.203000
@<TRIPOS>BOND
     1     1     2 ar  
     2     1     4 ar  
     3     1    22 1   
     4     2    14 ar  
     5     2    23 1   
     6     3     5 ar  
     7     3    14 ar  
     8     3    17 1   
     9     4     5 ar  
    10     4    24 1   
    11     5     9 1   
    12     6     7 2   
    13     6     8 1   
    14     6    31 1   
    15     7    21 1   
    16     7    32 1   
    17     8     9 ar  
    18     8    13 ar  
    19     9    10 ar  
    20    10    11 ar  
    21    10    25 1   
    22    11    12 ar  
    23    11    26 1   
    24    12    13 ar  
    25    12    27 1   
    26    13    21 1   
    27    14    15 1   
    28    15    16 1   
    29    15    28 1   
    30    16    17 2   
    31    16    18 1   
    32    17    29 1   
    33    18    19 1   
    34    18    20 1   
    35    21    30 1   
@<TRIPOS>SUBSTRUCTURE
     1 5BK         1 TEMP              0 ****  ****    0 ROOT
