@<TRIPOS>MOLECULE
5BK
   32    35     1     0     0
SMALL
bcc


@<TRIPOS>ATOM
      1 C1           0.7530    -3.5190    -0.4840 ca         1 5BK      -0.152000
      2 C2           1.9810    -2.8920    -0.5450 ca         1 5BK      -0.139000
      3 C3           0.8400    -0.7810     0.0230 ca         1 5BK      -0.078800
      4 C11         -0.4170    -2.8070    -0.1800 ca         1 5BK      -0.161000
      5 C12         -0.4030    -1.4430     0.0690 cp         1 5BK      -0.013000
      6 C13         -1.5140     1.1310    -1.4430 cc         1 5BK      -0.151200
      7 C15         -2.3840     2.1450    -1.7200 cd         1 5BK      -0.138100
      8 C16         -2.0570     0.4150    -0.3300 ca         1 5BK      -0.083800
      9 C17         -1.6530    -0.7260     0.3900 cp         1 5BK       0.054000
     10 C18         -2.4860    -1.1760     1.4030 ca         1 5BK      -0.167000
     11 C19         -3.6860    -0.5240     1.7220 ca         1 5BK      -0.113000
     12 C20         -4.0980     0.6000     1.0340 ca         1 5BK      -0.168000
     13 C21         -3.2720     1.0540     0.0070 ca         1 5BK      -0.051200
     14 C4           2.0080    -1.5220    -0.2850 ca         1 5BK      -0.077200
     15 N5           3.0580    -0.6600    -0.2440 na         1 5BK      -0.148400
     16 C6           2.6220     0.5940     0.0860 cc         1 5BK      -0.092300
     17 C7           1.2630     0.5600     0.2600 cd         1 5BK      -0.213200
     18 C8           3.5910     1.7370     0.2040 c          1 5BK       0.937800
     19 O9           3.1070     2.8390     0.5170 o          1 5BK      -0.817300
     20 O10          4.7850     1.4600    -0.0240 o          1 5BK      -0.817300
     21 N14         -3.4360     2.1010    -0.8520 na         1 5BK      -0.184400
     22 H1           0.6860    -4.5820    -0.6790 ha         1 5BK       0.106000
     23 H2           2.8840    -3.4410    -0.7790 ha         1 5BK       0.116000
     24 H3          -1.3610    -3.3400    -0.1590 ha         1 5BK       0.110000
     25 H6          -2.1950    -2.0500     1.9730 ha         1 5BK       0.128000
     26 H7          -4.2980    -0.9110     2.5270 ha         1 5BK       0.114000
     27 H8          -5.0260     1.1010     1.2800 ha         1 5BK       0.116000
     28 H9           4.0250    -0.8860    -0.4100 hn         1 5BK       0.308700
     29 H10          0.6410     1.4010     0.5200 ha         1 5BK       0.164000
     30 H12         -4.2130     2.7400    -0.8540 hn         1 5BK       0.284700
     31 H4          -0.5940     0.9240    -1.9650 ha         1 5BK       0.174000
     32 H5          -2.3350     2.9060    -2.4810 h4         1 5BK       0.153000
@<TRIPOS>BOND
     1     1     2 ar  
     2     1     4 ar  
     3     1    22 1   
     4     2    14 ar  
     5     2    23 1   
     6     3     5 ar  
     7     3    14 ar  
     8     3    17 1   
     9     4     5 ar  
    10     4    24 1   
    11     5     9 1   
    12     6     7 2   
    13     6     8 1   
    14     6    31 1   
    15     7    21 1   
    16     7    32 1   
    17     8     9 ar  
    18     8    13 ar  
    19     9    10 ar  
    20    10    11 ar  
    21    10    25 1   
    22    11    12 ar  
    23    11    26 1   
    24    12    13 ar  
    25    12    27 1   
    26    13    21 1   
    27    14    15 1   
    28    15    16 1   
    29    15    28 1   
    30    16    17 2   
    31    16    18 1   
    32    17    29 1   
    33    18    19 1   
    34    18    20 1   
    35    21    30 1   
@<TRIPOS>SUBSTRUCTURE
     1 5BK         1 TEMP              0 ****  ****    0 ROOT
