@<TRIPOS>MOLECULE
5BL
   43    47     1     0     0
SMALL
bcc


@<TRIPOS>ATOM
      1 C1          -6.0070    -1.4670     0.3090 cc         1 5BL      -0.203000
      2 C2          -4.6100    -1.5370     0.1190 cc         1 5BL      -0.195000
      3 C3          -4.1150    -0.2460     0.1440 cd         1 5BL      -0.046300
      4 C11          0.6560    -1.9640    -1.8990 ca         1 5BL      -0.124000
      5 C12          1.6120    -2.9540    -2.2030 ca         1 5BL      -0.125000
      6 C13          2.5380    -3.3240    -1.2690 ca         1 5BL      -0.124000
      7 C14          1.5780    -1.7270     0.3210 ca         1 5BL       0.003000
      8 C15          2.5390    -2.7270     0.0140 ca         1 5BL      -0.030000
      9 C16          3.4760    -3.1130     1.0020 ca         1 5BL      -0.126000
     10 C17          3.4580    -2.5440     2.2450 ca         1 5BL      -0.126000
     11 C18          2.4950    -1.5620     2.5570 ca         1 5BL      -0.138000
     12 C19          1.5810    -1.1640     1.6190 ca         1 5BL      -0.081000
     13 C20         -0.0490     1.0500    -0.2810 ca         1 5BL       0.408600
     14 C21         -1.0730     1.9870    -0.0050 ca         1 5BL      -0.164300
     15 C22         -0.6870     3.3400     0.1150 ca         1 5BL      -0.140000
     16 C23          0.6260     3.6770    -0.0360 ca         1 5BL      -0.195300
     17 C24          1.5750     2.6680    -0.3340 ca         1 5BL       0.377800
     18 C26          3.0450     3.0520    -0.5310 c          1 5BL       0.819100
     19 N4          -5.1830     0.5820     0.3430 na         1 5BL      -0.152100
     20 C5          -6.3280    -0.1370     0.4430 cd         1 5BL      -0.183300
     21 C6          -0.4030    -0.3260    -0.3910 cp         1 5BL      -0.080300
     22 C7          -1.7120    -0.6990    -0.2550 ca         1 5BL      -0.118000
     23 C8          -2.7490     0.2360     0.0080 ca         1 5BL      -0.040000
     24 C9          -2.4090     1.5640     0.1340 ca         1 5BL      -0.106000
     25 C10          0.6320    -1.3470    -0.6740 cp         1 5BL       0.020000
     26 N25          1.2390     1.4080    -0.4510 nb         1 5BL      -0.633000
     27 O27          3.3270     4.2380    -0.2680 o          1 5BL      -0.797300
     28 O28          3.8110     2.1630    -0.9300 o          1 5BL      -0.797300
     29 H1          -6.6990    -2.2930     0.3450 ha         1 5BL       0.139000
     30 H2          -4.0300    -2.4370    -0.0170 ha         1 5BL       0.148000
     31 H3          -0.0680    -1.6790    -2.6530 ha         1 5BL       0.127000
     32 H4           1.6080    -3.4140    -3.1820 ha         1 5BL       0.118000
     33 H5           3.2780    -4.0820    -1.4950 ha         1 5BL       0.118000
     34 H6           4.2090    -3.8720     0.7590 ha         1 5BL       0.117000
     35 H7           4.1760    -2.8500     2.9940 ha         1 5BL       0.116000
     36 H8           2.4810    -1.1220     3.5450 ha         1 5BL       0.122000
     37 H9           0.8450    -0.4130     1.8750 ha         1 5BL       0.140000
     38 H10         -1.4370     4.0940     0.3250 ha         1 5BL       0.112000
     39 H11          0.9510     4.7030     0.0570 ha         1 5BL       0.161000
     40 H12         -5.1480     1.5860     0.3930 hn         1 5BL       0.290700
     41 H13         -7.2780     0.3480     0.6000 h4         1 5BL       0.152000
     42 H14         -1.9610    -1.7490    -0.3450 ha         1 5BL       0.128000
     43 H15         -3.1550     2.3220     0.3440 ha         1 5BL       0.106000
@<TRIPOS>BOND
     1     1     2 1   
     2     1    20 2   
     3     1    29 1   
     4     2     3 2   
     5     2    30 1   
     6     3    19 1   
     7     3    23 1   
     8     4     5 ar  
     9     4    25 ar  
    10     4    31 1   
    11     5     6 ar  
    12     5    32 1   
    13     6     8 ar  
    14     6    33 1   
    15     7     8 ar  
    16     7    12 ar  
    17     7    25 ar  
    18     8     9 ar  
    19     9    10 ar  
    20     9    34 1   
    21    10    11 ar  
    22    10    35 1   
    23    11    12 ar  
    24    11    36 1   
    25    12    37 1   
    26    13    14 ar  
    27    13    21 ar  
    28    13    26 ar  
    29    14    15 ar  
    30    14    24 ar  
    31    15    16 ar  
    32    15    38 1   
    33    16    17 ar  
    34    16    39 1   
    35    17    18 1   
    36    17    26 ar  
    37    18    27 1   
    38    18    28 1   
    39    19    20 1   
    40    19    40 1   
    41    20    41 1   
    42    21    22 ar  
    43    21    25 1   
    44    22    23 ar  
    45    22    42 1   
    46    23    24 ar  
    47    24    43 1   
@<TRIPOS>SUBSTRUCTURE
     1 5BL         1 TEMP              0 ****  ****    0 ROOT
