@<TRIPOS>MOLECULE
5BL
   43    47     1     0     0
SMALL
No Charge or Current Charge


@<TRIPOS>ATOM
      1 C1          -6.0390    -1.4370     0.3020 cc         1 5BL      -0.185000
      2 C2          -4.6500    -1.4830     0.0950 cc         1 5BL      -0.177000
      3 C3          -4.1400    -0.2130     0.1630 cd         1 5BL      -0.097000
      4 C11          0.7030    -1.9900    -1.9260 ca         1 5BL      -0.106000
      5 C12          1.6450    -2.9850    -2.2230 ca         1 5BL      -0.107000
      6 C13          2.5700    -3.3870    -1.2480 ca         1 5BL      -0.106000
      7 C14          1.6000    -1.7920     0.3360 ca         1 5BL       0.003000
      8 C15          2.5500    -2.7990     0.0300 ca         1 5BL      -0.030000
      9 C16          3.4760    -3.2220     1.0020 ca         1 5BL      -0.108000
     10 C17          3.4630    -2.6540     2.2860 ca         1 5BL      -0.108000
     11 C18          2.5220    -1.6630     2.6020 ca         1 5BL      -0.120000
     12 C19          1.5950    -1.2350     1.6360 ca         1 5BL      -0.063000
     13 C20         -0.0220     1.0590    -0.2980 ca         1 5BL       0.278000
     14 C21         -1.0540     1.9960    -0.0420 ca         1 5BL      -0.099000
     15 C22         -0.7420     3.3620     0.0600 ca         1 5BL      -0.122000
     16 C23          0.5920     3.7590    -0.1010 ca         1 5BL      -0.112000
     17 C24          1.5890     2.7920    -0.3620 ca         1 5BL       0.312500
     18 C26          3.0660     3.2460    -0.5430 c          1 5BL       0.608500
     19 N4          -5.2410     0.6210     0.4170 na         1 5BL      -0.101000
     20 C5          -6.4160    -0.1400     0.5030 cd         1 5BL      -0.216000
     21 C6          -0.3640    -0.3200    -0.3920 cp         1 5BL      -0.015000
     22 C7          -1.7150    -0.7150    -0.2450 ca         1 5BL      -0.100000
     23 C8          -2.7360     0.2200     0.0080 ca         1 5BL      -0.040000
     24 C9          -2.3900     1.5800     0.1110 ca         1 5BL      -0.088000
     25 C10          0.6670    -1.3700    -0.6550 cp         1 5BL       0.020000
     26 N25          1.2650     1.4640    -0.4560 nb         1 5BL      -0.633000
     27 O27          3.3360     4.4390    -0.4430 o          1 5BL      -0.692000
     28 O28          3.9320     2.4090    -0.7850 o          1 5BL      -0.692000
     29 H1          -6.6940    -2.3040     0.3000 ha         1 5BL       0.121000
     30 H2          -4.0960    -2.3990    -0.0890 ha         1 5BL       0.130000
     31 H3          -0.0100    -1.6850    -2.6900 ha         1 5BL       0.109000
     32 H4           1.6600    -3.4450    -3.2090 ha         1 5BL       0.100000
     33 H5           3.2970    -4.1600    -1.4850 ha         1 5BL       0.100000
     34 H6           4.2060    -3.9930     0.7660 ha         1 5BL       0.099000
     35 H7           4.1790    -2.9840     3.0350 ha         1 5BL       0.098000
     36 H8           2.5090    -1.2240     3.5970 ha         1 5BL       0.104000
     37 H9           0.8760    -0.4680     1.9090 ha         1 5BL       0.122000
     38 H10         -1.5150     4.1020     0.2570 ha         1 5BL       0.094000
     39 H11          0.8540     4.8110    -0.0270 ha         1 5BL       0.143000
     40 H12         -5.1920     1.6290     0.5240 hn         1 5BL       0.341000
     41 H13         -7.3920     0.2940     0.6940 h4         1 5BL       0.134000
     42 H14         -1.9520    -1.7710    -0.3270 ha         1 5BL       0.110000
     43 H15         -3.1560     2.3250     0.3060 ha         1 5BL       0.088000
@<TRIPOS>BOND
     1     1     2 1   
     2     1    20 2   
     3     1    29 1   
     4     2     3 2   
     5     2    30 1   
     6     3    19 1   
     7     3    23 1   
     8     4     5 ar  
     9     4    25 ar  
    10     4    31 1   
    11     5     6 ar  
    12     5    32 1   
    13     6     8 ar  
    14     6    33 1   
    15     7     8 ar  
    16     7    12 ar  
    17     7    25 ar  
    18     8     9 ar  
    19     9    10 ar  
    20     9    34 1   
    21    10    11 ar  
    22    10    35 1   
    23    11    12 ar  
    24    11    36 1   
    25    12    37 1   
    26    13    14 ar  
    27    13    21 ar  
    28    13    26 ar  
    29    14    15 ar  
    30    14    24 ar  
    31    15    16 ar  
    32    15    38 1   
    33    16    17 ar  
    34    16    39 1   
    35    17    18 1   
    36    17    26 ar  
    37    18    27 1   
    38    18    28 1   
    39    19    20 1   
    40    19    40 1   
    41    20    41 1   
    42    21    22 ar  
    43    21    25 1   
    44    22    23 ar  
    45    22    42 1   
    46    23    24 ar  
    47    24    43 1   
@<TRIPOS>SUBSTRUCTURE
     1 5BL         1 TEMP              0 ****  ****    0 ROOT
