@<TRIPOS>MOLECULE
5BM
   42    43     1     0     0
SMALL
bcc


@<TRIPOS>ATOM
      1 C01          0.7530     1.6830    -0.1430 ce         1 5BM      -0.138200
      2 C02          1.1340     2.9350     0.3780 cg         1 5BM       0.229500
      3 N03          1.4100     3.9790     0.7980 n1         1 5BM      -0.408300
      4 C04          1.6090     0.6060    -0.0520 c2         1 5BM       0.323100
      5 N05          1.3310    -0.5840    -0.5640 nv         1 5BM      -0.857100
      6 S06          3.1350     0.8300     0.8110 ss         1 5BM      -0.181500
      7 C07          4.0000    -0.6740     0.4940 ca         1 5BM      -0.144100
      8 C08          4.7970    -0.7980    -0.6630 ca         1 5BM       0.229600
      9 C09          5.5090    -2.0010    -0.8260 ca         1 5BM      -0.225000
     10 C10          5.4350    -3.0070     0.1140 ca         1 5BM      -0.048000
     11 C11          4.6520    -2.8710     1.2600 ca         1 5BM      -0.199000
     12 C12          3.9430    -1.7000     1.4400 ca         1 5BM      -0.033500
     13 N13          4.9160     0.1960    -1.5780 nv         1 5BM      -0.837200
     14 C21         -0.5600     1.5630    -0.8110 ce         1 5BM      -0.138200
     15 C22         -0.6470     1.8650    -2.1840 cg         1 5BM       0.229500
     16 N23         -0.6740     2.1190    -3.3150 n1         1 5BM      -0.408300
     17 C24         -1.6880     1.1940    -0.1090 c2         1 5BM       0.323100
     18 N25         -1.6670     0.8640     1.1740 nv         1 5BM      -0.857100
     19 S26         -3.2370     1.1930    -0.9590 ss         1 5BM      -0.181500
     20 C27         -4.2550     0.2220     0.1060 ca         1 5BM      -0.144100
     21 C28         -4.1390    -1.1820     0.0990 ca         1 5BM       0.229600
     22 C29         -5.0130    -1.9040     0.9270 ca         1 5BM      -0.225000
     23 C30         -5.9510    -1.2580     1.7070 ca         1 5BM      -0.048000
     24 C31         -6.0640     0.1300     1.7000 ca         1 5BM      -0.199000
     25 C32         -5.2100     0.8610     0.8960 ca         1 5BM      -0.033500
     26 N33         -3.1790    -1.8230    -0.6290 nv         1 5BM      -0.837200
     27 HN05         0.4600    -0.7370    -1.0480 hn         1 5BM       0.445800
     28 HN0A         1.9400    -1.3760    -0.4370 hn         1 5BM       0.445800
     29 H09          6.1280    -2.1280    -1.7050 ha         1 5BM       0.134500
     30 H10          5.9990    -3.9170    -0.0480 ha         1 5BM       0.133000
     31 H11          4.5990    -3.6630     1.9940 ha         1 5BM       0.140500
     32 H12          3.3270    -1.5640     2.3200 ha         1 5BM       0.144500
     33 HN13         4.2630     0.9610    -1.5710 hn         1 5BM       0.423050
     34 HN1A         5.2980    -0.0280    -2.4800 hn         1 5BM       0.423050
     35 HN25        -0.7970     0.8510     1.6830 hn         1 5BM       0.445800
     36 HN2A        -2.5060     0.6280     1.6770 hn         1 5BM       0.445800
     37 H29         -4.9450    -2.9850     0.9470 ha         1 5BM       0.134500
     38 H30         -6.6100    -1.8500     2.3300 ha         1 5BM       0.133000
     39 H31         -6.8040     0.6310     2.3090 ha         1 5BM       0.140500
     40 H32         -5.2720     1.9410     0.8710 ha         1 5BM       0.144500
     41 HN33        -2.8150    -1.3410    -1.4360 hn         1 5BM       0.423050
     42 HN3A        -3.3240    -2.8070    -0.7900 hn         1 5BM       0.423050
@<TRIPOS>BOND
     1     1     2 1   
     2     1     4 2   
     3     1    14 1   
     4     2     3 3   
     5     4     5 1   
     6     4     6 1   
     7     5    27 1   
     8     5    28 1   
     9     6     7 1   
    10     7     8 ar  
    11     7    12 ar  
    12     8     9 ar  
    13     8    13 1   
    14     9    10 ar  
    15     9    29 1   
    16    10    11 ar  
    17    10    30 1   
    18    11    12 ar  
    19    11    31 1   
    20    12    32 1   
    21    13    33 1   
    22    13    34 1   
    23    14    15 1   
    24    14    17 2   
    25    15    16 3   
    26    17    18 1   
    27    17    19 1   
    28    18    35 1   
    29    18    36 1   
    30    19    20 1   
    31    20    21 ar  
    32    20    25 ar  
    33    21    22 ar  
    34    21    26 1   
    35    22    23 ar  
    36    22    37 1   
    37    23    24 ar  
    38    23    38 1   
    39    24    25 ar  
    40    24    39 1   
    41    25    40 1   
    42    26    41 1   
    43    26    42 1   
@<TRIPOS>SUBSTRUCTURE
     1 5BM         1 TEMP              0 ****  ****    0 ROOT
