@<TRIPOS>MOLECULE
5BM
   42    43     1     0     0
SMALL
No Charge or Current Charge


@<TRIPOS>ATOM
      1 C01          0.7560     1.9730    -0.1630 ce         1 5BM      -0.138200
      2 C02          1.0950     3.2530     0.3920 cg         1 5BM       0.318700
      3 N03          1.3310     4.3100     0.8280 n1         1 5BM      -0.497500
      4 C04          1.6250     0.9370    -0.0920 c2         1 5BM       0.323100
      5 N05          1.3770    -0.3280    -0.6030 nv         1 5BM      -0.967500
      6 S06          3.2470     1.0370     0.6870 ss         1 5BM      -0.054600
      7 C07          3.9730    -0.6010     0.4820 ca         1 5BM      -0.271000
      8 C08          4.7390    -0.9370    -0.6500 ca         1 5BM       0.368000
      9 C09          5.2850    -2.2210    -0.7750 ca         1 5BM      -0.207000
     10 C10          5.0780    -3.1800     0.2310 ca         1 5BM      -0.030000
     11 C11          4.3200    -2.8450     1.3650 ca         1 5BM      -0.181000
     12 C12          3.7690    -1.5590     1.4930 ca         1 5BM      -0.015500
     13 N13          4.9420    -0.0240    -1.6380 nv         1 5BM      -1.086000
     14 C21         -0.5980     1.8980    -0.7830 ce         1 5BM      -0.138200
     15 C22         -0.8560     2.8700    -1.8070 cg         1 5BM       0.318700
     16 N23         -1.0200     3.6680    -2.6430 n1         1 5BM      -0.497500
     17 C24         -1.5560     1.0200    -0.4010 c2         1 5BM       0.323100
     18 N25         -1.3640     0.0500     0.5650 nv         1 5BM      -0.967500
     19 S26         -3.2050     0.9470    -1.1300 ss         1 5BM      -0.054600
     20 C27         -4.2460     0.0760     0.0610 ca         1 5BM      -0.271000
     21 C28         -4.1320    -1.3050     0.3050 ca         1 5BM       0.368000
     22 C29         -4.9520    -1.9270     1.2540 ca         1 5BM      -0.207000
     23 C30         -5.9120    -1.1810     1.9570 ca         1 5BM      -0.030000
     24 C31         -6.0410     0.1950     1.7070 ca         1 5BM      -0.181000
     25 C32         -5.2110     0.8220     0.7630 ca         1 5BM      -0.015500
     26 N33         -3.2030    -2.0440    -0.3620 nv         1 5BM      -1.086000
     27 HN05         0.9130    -0.3390    -1.5090 hn         1 5BM       0.501000
     28 HN0A         2.1890    -0.9420    -0.5650 hn         1 5BM       0.501000
     29 H09          5.8700    -2.4820    -1.6520 ha         1 5BM       0.116500
     30 H10          5.5030    -4.1760     0.1320 ha         1 5BM       0.115000
     31 H11          4.1590    -3.5840     2.1460 ha         1 5BM       0.122500
     32 H12          3.1830    -1.3080     2.3750 ha         1 5BM       0.126500
     33 HN13         4.7300     0.9490    -1.4390 hn         1 5BM       0.478250
     34 HN1A         5.6610    -0.2020    -2.3360 hn         1 5BM       0.478250
     35 HN25        -0.3980    -0.2780     0.6000 hn         1 5BM       0.501000
     36 HN2A        -2.0440    -0.7130     0.4960 hn         1 5BM       0.501000
     37 H29         -4.8530    -2.9910     1.4480 ha         1 5BM       0.116500
     38 H30         -6.5510    -1.6660     2.6920 ha         1 5BM       0.115000
     39 H31         -6.7830     0.7770     2.2490 ha         1 5BM       0.122500
     40 H32         -5.3150     1.8900     0.5800 ha         1 5BM       0.126500
     41 HN33        -2.9600    -1.7250    -1.2970 hn         1 5BM       0.478250
     42 HN3A        -3.2650    -3.0570    -0.2740 hn         1 5BM       0.478250
@<TRIPOS>BOND
     1     1     2 1   
     2     1     4 2   
     3     1    14 1   
     4     2     3 3   
     5     4     5 1   
     6     4     6 1   
     7     5    27 1   
     8     5    28 1   
     9     6     7 1   
    10     7     8 ar  
    11     7    12 ar  
    12     8     9 ar  
    13     8    13 1   
    14     9    10 ar  
    15     9    29 1   
    16    10    11 ar  
    17    10    30 1   
    18    11    12 ar  
    19    11    31 1   
    20    12    32 1   
    21    13    33 1   
    22    13    34 1   
    23    14    15 1   
    24    14    17 2   
    25    15    16 3   
    26    17    18 1   
    27    17    19 1   
    28    18    35 1   
    29    18    36 1   
    30    19    20 1   
    31    20    21 ar  
    32    20    25 ar  
    33    21    22 ar  
    34    21    26 1   
    35    22    23 ar  
    36    22    37 1   
    37    23    24 ar  
    38    23    38 1   
    39    24    25 ar  
    40    24    39 1   
    41    25    40 1   
    42    26    41 1   
    43    26    42 1   
@<TRIPOS>SUBSTRUCTURE
     1 5BM         1 TEMP              0 ****  ****    0 ROOT
