@<TRIPOS>MOLECULE
5BN
   38    41     1     0     0
SMALL
abcg2


@<TRIPOS>ATOM
      1 N22          3.6710    -0.0760     4.6910 n8         1 5BN      -0.996200
      2 C21          2.2570     0.0170     4.3780 c3         1 5BN       0.133800
      3 C20          2.0710     0.0550     2.8690 c3         1 5BN       0.223800
      4 N19          0.6650     0.0840     2.5430 nu         1 5BN      -0.966200
      5 C7           0.1720     0.0620     1.2940 ca         1 5BN       0.419000
      6 C8           1.0270     0.0680     0.1830 ca         1 5BN      -0.273000
      7 C9           0.6040     0.0500    -1.1620 ca         1 5BN       0.172000
      8 C14          1.6150     0.0650    -2.2050 cc         1 5BN      -0.169000
      9 C15          1.6140     0.6130    -3.4750 cd         1 5BN      -0.102000
     10 C16          2.8970     0.4230    -4.0250 cd         1 5BN      -0.192000
     11 C17          3.6470    -0.2460    -3.0840 cc         1 5BN      -0.182000
     12 N18          2.8710    -0.4410    -1.9940 na         1 5BN      -0.100000
     13 C10         -0.7700     0.0320    -1.3970 ca         1 5BN      -0.212000
     14 C11         -1.6350    -0.0530    -2.5870 c          1 5BN       0.330800
     15 O13         -1.3610    -0.1010    -3.7740 o          1 5BN      -0.326000
     16 N12         -2.9300    -0.0780    -2.0960 ns         1 5BN      -0.341600
     17 C6          -2.9630    -0.0340    -0.7170 ca         1 5BN       0.013800
     18 C1          -3.9800    -0.0540     0.1960 ca         1 5BN      -0.114000
     19 C2          -3.6330    -0.0180     1.5650 ca         1 5BN      -0.137000
     20 C3          -2.3240     0.0250     1.9640 ca         1 5BN       0.160000
     21 F           -2.0630     0.0480     3.2890 f          1 5BN      -0.194000
     22 C4          -1.2480     0.0440     1.0520 ca         1 5BN      -0.113000
     23 C5          -1.6240     0.0280    -0.2870 ca         1 5BN      -0.016000
     24 H221         3.8060     0.0670     5.6830 hn         1 5BN       0.400500
     25 H222         3.9990    -1.0150     4.5020 hn         1 5BN       0.400500
     26 H211         1.6540    -0.8040     4.7920 h1         1 5BN       0.037700
     27 H212         1.8670     0.9430     4.8090 h1         1 5BN       0.037700
     28 H201         2.5830     0.9330     2.4640 h1         1 5BN       0.052700
     29 H202         2.5430    -0.8280     2.4210 h1         1 5BN       0.052700
     30 H19          0.0170     0.0790     3.3110 hn         1 5BN       0.507000
     31 H8           2.0880     0.1430     0.3740 ha         1 5BN       0.112000
     32 H15          0.7850     1.1190    -3.9380 ha         1 5BN       0.151000
     33 H16          3.2370     0.7410    -4.9980 ha         1 5BN       0.134000
     34 H17          4.6620    -0.6060    -3.1180 h4         1 5BN       0.144000
     35 H18          3.1580    -0.9680    -1.1850 hn         1 5BN       0.342000
     36 H12         -3.7390    -0.1270    -2.6950 hn         1 5BN       0.352000
     37 H1          -5.0210    -0.1000    -0.0940 ha         1 5BN       0.126000
     38 H2          -4.4120    -0.0310     2.3150 ha         1 5BN       0.131000
@<TRIPOS>BOND
     1     1     2 1   
     2     1    24 1   
     3     1    25 1   
     4     2     3 1   
     5     2    26 1   
     6     2    27 1   
     7     3     4 1   
     8     3    28 1   
     9     3    29 1   
    10     4     5 1   
    11     4    30 1   
    12     5     6 ar  
    13     5    22 ar  
    14     6     7 ar  
    15     6    31 1   
    16     7     8 1   
    17     7    13 ar  
    18     8     9 2   
    19     8    12 1   
    20     9    10 1   
    21     9    32 1   
    22    10    11 2   
    23    10    33 1   
    24    11    12 1   
    25    11    34 1   
    26    12    35 1   
    27    13    14 1   
    28    13    23 ar  
    29    14    15 2   
    30    14    16 1   
    31    16    17 1   
    32    16    36 1   
    33    17    18 ar  
    34    17    23 ar  
    35    18    19 ar  
    36    18    37 1   
    37    19    20 ar  
    38    19    38 1   
    39    20    21 1   
    40    20    22 ar  
    41    22    23 ar  
@<TRIPOS>SUBSTRUCTURE
     1 5BN         1 TEMP              0 ****  ****    0 ROOT
