@<TRIPOS>MOLECULE
5BN
   38    41     1     0     0
SMALL
No Charge or Current Charge


@<TRIPOS>ATOM
      1 N22          3.5720    -0.2230     5.0660 n8         1 5BN      -0.996200
      2 C21          2.2210     0.1210     4.5500 c3         1 5BN       0.133800
      3 C20          2.0820    -0.0340     3.0060 c3         1 5BN       0.223800
      4 N19          0.7200     0.3040     2.5410 nu         1 5BN      -0.966200
      5 C7           0.2160     0.1840     1.2440 ca         1 5BN       0.419000
      6 C8           1.1160     0.1430     0.1470 ca         1 5BN      -0.273000
      7 C9           0.6690     0.0340    -1.1950 ca         1 5BN       0.172000
      8 C14          1.6460     0.0180    -2.2830 cc         1 5BN      -0.169000
      9 C15          1.5360     0.7680    -3.4200 cd         1 5BN      -0.102000
     10 C16          2.7160     0.5880    -4.1720 cd         1 5BN      -0.192000
     11 C17          3.5690    -0.2420    -3.4910 cc         1 5BN      -0.182000
     12 N18          2.9130    -0.5670    -2.2980 na         1 5BN      -0.100000
     13 C10         -0.7190    -0.0550    -1.4010 ca         1 5BN      -0.212000
     14 C11         -1.5720    -0.2360    -2.6310 c          1 5BN       0.330800
     15 O13         -1.2440    -0.3790    -3.7960 o          1 5BN      -0.326000
     16 N12         -2.8510    -0.2440    -2.1150 ns         1 5BN      -0.341600
     17 C6          -2.8860    -0.1180    -0.7230 ca         1 5BN       0.013800
     18 C1          -3.9370    -0.1000     0.1980 ca         1 5BN      -0.114000
     19 C2          -3.5860     0.0310     1.5650 ca         1 5BN      -0.137000
     20 C3          -2.2270     0.1330     1.9730 ca         1 5BN       0.160000
     21 F           -1.9620     0.2490     3.2950 f          1 5BN      -0.194000
     22 C4          -1.1800     0.1090     1.0090 ca         1 5BN      -0.113000
     23 C5          -1.5760    -0.0110    -0.3140 ca         1 5BN      -0.016000
     24 H221         3.5740    -0.1300     6.0900 hn         1 5BN       0.400500
     25 H222         3.7450    -1.2260     4.9200 hn         1 5BN       0.400500
     26 H211         1.4840    -0.5260     5.0470 h1         1 5BN       0.037700
     27 H212         2.0010     1.1620     4.8250 h1         1 5BN       0.037700
     28 H201         2.8190     0.6190     2.5180 h1         1 5BN       0.052700
     29 H202         2.3190    -1.0720     2.7310 h1         1 5BN       0.052700
     30 H19         -0.0080     0.3520     3.2560 hn         1 5BN       0.507000
     31 H8           2.1810     0.2190     0.3280 ha         1 5BN       0.112000
     32 H15          0.6980     1.4040    -3.6920 ha         1 5BN       0.151000
     33 H16          2.9250     1.0490    -5.1340 ha         1 5BN       0.134000
     34 H17          4.5620    -0.6030    -3.7350 h4         1 5BN       0.144000
     35 H18          3.2960    -1.1500    -1.5590 hn         1 5BN       0.342000
     36 H12         -3.6800    -0.3770    -2.6860 hn         1 5BN       0.352000
     37 H1          -4.9730    -0.1850    -0.1200 ha         1 5BN       0.126000
     38 H2          -4.3690     0.0500     2.3190 ha         1 5BN       0.131000
@<TRIPOS>BOND
     1     1     2 1   
     2     1    24 1   
     3     1    25 1   
     4     2     3 1   
     5     2    26 1   
     6     2    27 1   
     7     3     4 1   
     8     3    28 1   
     9     3    29 1   
    10     4     5 1   
    11     4    30 1   
    12     5     6 ar  
    13     5    22 ar  
    14     6     7 ar  
    15     6    31 1   
    16     7     8 1   
    17     7    13 ar  
    18     8     9 2   
    19     8    12 1   
    20     9    10 1   
    21     9    32 1   
    22    10    11 2   
    23    10    33 1   
    24    11    12 1   
    25    11    34 1   
    26    12    35 1   
    27    13    14 1   
    28    13    23 ar  
    29    14    15 2   
    30    14    16 1   
    31    16    17 1   
    32    16    36 1   
    33    17    18 ar  
    34    17    23 ar  
    35    18    19 ar  
    36    18    37 1   
    37    19    20 ar  
    38    19    38 1   
    39    20    21 1   
    40    20    22 ar  
    41    22    23 ar  
@<TRIPOS>SUBSTRUCTURE
     1 5BN         1 TEMP              0 ****  ****    0 ROOT
