@<TRIPOS>MOLECULE
5BO
   57    59     1     0     0
SMALL
bcc


@<TRIPOS>ATOM
      1 CAA         -1.2120     6.4230     0.4580 c3         1 5BO      -0.091100
      2 CAB         -3.0700    -0.7600     2.9880 c3         1 5BO      -0.084100
      3 OAD         -3.1890    -1.7580    -2.5230 o          1 5BO      -0.588500
      4 OAE          3.4040    -2.1020    -2.1450 o          1 5BO      -0.605800
      5 OAF          5.1190    -0.2610    -2.1490 o          1 5BO      -0.605800
      6 BRAG        -5.1160    -1.6120    -0.1520 br         1 5BO      -0.033700
      7 CAH          3.0100     1.6110    -1.2080 ca         1 5BO       0.030000
      8 CAI          2.0150     2.5300    -0.9260 ca         1 5BO      -0.257000
      9 CAJ          1.3920    -0.1670    -1.1790 ca         1 5BO       0.025000
     10 CAK         -1.3880     4.9360     0.1870 c3         1 5BO      -0.082400
     11 CAL         -3.4780     0.2740     1.9370 c3         1 5BO      -0.038200
     12 CAM         -0.0810     4.3070    -0.2460 c3         1 5BO       0.139400
     13 CAN          2.8680    -1.4350     1.8490 c6         1 5BO       0.129800
     14 CAO          4.5430     0.2600     1.8220 c6         1 5BO       0.129800
     15 CAP          3.6250    -2.2350     0.8030 c6         1 5BO       0.201300
     16 CAQ          5.3370    -0.5040     0.7770 c6         1 5BO       0.201300
     17 NAR         -1.6070     0.4820     0.4400 nc         1 5BO      -0.643300
     18 NAS         -1.5200    -0.4840    -1.6640 ns         1 5BO      -0.470400
     19 OAT         -0.3160     2.9180    -0.4690 os         1 5BO      -0.299900
     20 CAU          2.7030     0.2640    -1.3230 ca         1 5BO      -0.353500
     21 CAV          0.6980     2.1070    -0.7390 ca         1 5BO       0.252100
     22 CAW         -2.8550    -0.0360     0.6120 cc         1 5BO       0.233400
     23 CAX         -3.4310    -0.8190    -0.3480 cd         1 5BO      -0.242500
     24 CAY          0.3920     0.7400    -0.8720 ca         1 5BO      -0.228900
     25 CAZ         -0.9840     0.2480    -0.6670 cd         1 5BO       0.583500
     26 CBA         -2.7630    -1.0920    -1.5980 c          1 5BO       0.715700
     27 NBB          3.7840    -0.6520     2.6560 n3         1 5BO      -0.703600
     28 NBC          4.4900    -1.3910    -0.0210 n3         1 5BO      -0.736500
     29 HAA         -0.8800     6.9560    -0.4350 hc         1 5BO       0.038700
     30 HAAA        -2.1520     6.8720     0.7770 hc         1 5BO       0.038700
     31 HAAB        -0.4780     6.6030     1.2450 hc         1 5BO       0.038700
     32 HAB         -1.9860    -0.8030     3.0950 hc         1 5BO       0.041033
     33 HABA        -3.4920    -0.4970     3.9570 hc         1 5BO       0.041033
     34 HABB        -3.4240    -1.7560     2.7250 hc         1 5BO       0.041033
     35 HAC          2.5520    -0.6520     4.3430 h1         1 5BO       0.035367
     36 HACA         3.7950     0.6000     4.3280 h1         1 5BO       0.035367
     37 HACB         2.3500     0.7800     3.3210 h1         1 5BO       0.035367
     38 HAH          4.0240     1.9640    -1.3410 ha         1 5BO       0.156000
     39 HAI          2.2800     3.5750    -0.8600 ha         1 5BO       0.147000
     40 HAJ          1.1430    -1.2170    -1.2770 ha         1 5BO       0.160000
     41 HAK         -1.7490     4.4310     1.0860 hc         1 5BO       0.060700
     42 HAKA        -2.1400     4.7860    -0.5910 hc         1 5BO       0.060700
     43 HAL         -4.5630     0.3230     1.8630 hc         1 5BO       0.066700
     44 HALA        -3.1300     1.2610     2.2440 hc         1 5BO       0.066700
     45 HAM          0.2890     4.7760    -1.1630 h1         1 5BO       0.041700
     46 HAMA         0.6790     4.4370     0.5310 h1         1 5BO       0.041700
     47 HAN          2.1080    -0.7970     1.3670 h1         1 5BO       0.041700
     48 HANA         2.3300    -2.1350     2.4920 h1         1 5BO       0.041700
     49 HAO          5.2450     0.8180     2.4460 h1         1 5BO       0.041700
     50 HAOA         3.8890     1.0020     1.3350 h1         1 5BO       0.041700
     51 HAP          4.2710    -2.9630     1.3000 h1         1 5BO       0.076950
     52 HAPA         2.9370    -2.7980     0.1760 h1         1 5BO       0.076950
     53 HAQ          5.8840     0.1790     0.1310 h1         1 5BO       0.076950
     54 HAQA         6.0770    -1.1360     1.2740 h1         1 5BO       0.076950
     55 HNAS        -1.0030    -0.5970    -2.5290 hn         1 5BO       0.339500
     56 SBD          3.9930    -0.9290    -1.5180 sy         1 5BO       1.313200
     57 CAC          3.0850     0.0550     3.7050 c3         1 5BO       0.147100
@<TRIPOS>BOND
     1     1    10 1   
     2     1    29 1   
     3     1    30 1   
     4     1    31 1   
     5     2    11 1   
     6     2    32 1   
     7     2    33 1   
     8     2    34 1   
     9     3    26 2   
    10     4    56 2   
    11     5    56 2   
    12     6    23 1   
    13     7     8 ar  
    14     7    20 ar  
    15     7    38 1   
    16     8    21 ar  
    17     8    39 1   
    18     9    20 ar  
    19     9    24 ar  
    20     9    40 1   
    21    10    12 1   
    22    10    41 1   
    23    10    42 1   
    24    11    22 1   
    25    11    43 1   
    26    11    44 1   
    27    12    19 1   
    28    12    45 1   
    29    12    46 1   
    30    13    15 1   
    31    13    27 1   
    32    13    47 1   
    33    13    48 1   
    34    14    16 1   
    35    14    27 1   
    36    14    49 1   
    37    14    50 1   
    38    15    28 1   
    39    15    51 1   
    40    15    52 1   
    41    16    28 1   
    42    16    53 1   
    43    16    54 1   
    44    17    22 1   
    45    17    25 2   
    46    18    25 1   
    47    18    26 1   
    48    18    55 1   
    49    19    21 1   
    50    20    56 1   
    51    21    24 ar  
    52    22    23 2   
    53    23    26 1   
    54    24    25 1   
    55    27    57 1   
    56    28    56 1   
    57    35    57 1   
    58    36    57 1   
    59    37    57 1   
@<TRIPOS>SUBSTRUCTURE
     1 5BO         1 TEMP              0 ****  ****    0 ROOT
