@<TRIPOS>MOLECULE
5BO
   57    59     1     0     0
SMALL
No Charge or Current Charge


@<TRIPOS>ATOM
      1 CAA         -0.6220     7.2730    -2.2590 c3         1 5BO      -0.091100
      2 CAB         -3.3760    -2.0800     2.0420 c3         1 5BO      -0.084100
      3 OAD         -4.3710     2.4130    -1.2320 o          1 5BO      -0.513000
      4 OAE          2.7140    -2.2330    -0.1760 o          1 5BO      -0.535000
      5 OAF          4.4420    -1.0450    -1.6560 o          1 5BO      -0.535000
      6 BrAG        -5.6790     0.7750     1.0460 br         1 5BO      -0.033700
      7 CAH          2.8780     1.5380    -1.3370 ca         1 5BO       0.048000
      8 CAI          2.0210     2.6340    -1.5080 ca         1 5BO      -0.239000
      9 CAJ          1.0270     0.2500    -0.4200 ca         1 5BO       0.043000
     10 CAK         -0.9550     5.8550    -1.7540 c3         1 5BO      -0.082400
     11 CAL         -3.0620    -0.6260     2.4460 c3         1 5BO      -0.038200
     12 CAM          0.2610     4.9100    -1.7650 c3         1 5BO       0.162600
     13 CAN          4.7820    -2.6270     2.2550 c6         1 5BO       0.129800
     14 CAO          2.9870    -1.0650     2.8880 c6         1 5BO       0.129800
     15 CAP          5.3980    -1.5310     1.3210 c6         1 5BO       0.201300
     16 CAQ          3.6270     0.0300     1.9750 c6         1 5BO       0.201300
     17 NAR         -1.5150     0.4270     0.8730 nc         1 5BO      -0.643300
     18 NAS         -2.2250     1.8620    -0.8580 ns         1 5BO      -0.403400
     19 OAT         -0.1820     3.6360    -1.2720 os         1 5BO      -0.323100
     20 CAU          2.3800     0.3470    -0.7910 ca         1 5BO      -0.353500
     21 CAV          0.6610     2.5490    -1.1380 ca         1 5BO       0.252100
     22 CAW         -2.8350     0.2830     1.2600 cc         1 5BO       0.233400
     23 CAX         -3.8450     0.9390     0.5750 cd         1 5BO      -0.242500
     24 CAY          0.1480     1.3420    -0.6060 ca         1 5BO      -0.228900
     25 CAZ         -1.2550     1.2210    -0.1610 cd         1 5BO       0.583500
     26 CBA         -3.5420     1.8020    -0.5770 c          1 5BO       0.573200
     27 NBB          4.0040    -2.0400     3.3900 n3         1 5BO      -0.703600
     28 NBC          4.3840    -0.5540     0.8260 n3         1 5BO      -0.736500
     29 HAA         -0.2540     7.2420    -3.2910 hc         1 5BO       0.038700
     30 HAAA        -1.5150     7.9090    -2.2330 hc         1 5BO       0.038700
     31 HAAB         0.1480     7.7380    -1.6300 hc         1 5BO       0.038700
     32 HAB         -2.5480    -2.5060     1.4610 hc         1 5BO       0.041033
     33 HABA        -3.5270    -2.7020     2.9320 hc         1 5BO       0.041033
     34 HABB        -4.2850    -2.1270     1.4310 hc         1 5BO       0.041033
     35 HAC          4.2080    -3.7260     4.6750 h1         1 5BO       0.035367
     36 HACA         2.9140    -2.6000     5.1330 h1         1 5BO       0.035367
     37 HACB         2.6940    -3.6870     3.7400 h1         1 5BO       0.035367
     38 HAH          3.9280     1.6240    -1.6180 ha         1 5BO       0.138000
     39 HAI          2.4380     3.5460    -1.9220 ha         1 5BO       0.129000
     40 HAJ          0.6540    -0.6800     0.0090 ha         1 5BO       0.142000
     41 HAK         -1.3500     5.9210    -0.7330 hc         1 5BO       0.060700
     42 HAKA        -1.7490     5.4290    -2.3800 hc         1 5BO       0.060700
     43 HAL         -3.8750    -0.2400     3.0730 hc         1 5BO       0.066700
     44 HALA        -2.1730    -0.6270     3.0890 hc         1 5BO       0.066700
     45 HAM          0.6460     4.8190    -2.7900 h1         1 5BO       0.041700
     46 HAMA         1.0510     5.3210    -1.1240 h1         1 5BO       0.041700
     47 HAN          4.1410    -3.2910     1.6590 h1         1 5BO       0.041700
     48 HANA         5.6010    -3.2500     2.6430 h1         1 5BO       0.041700
     49 HAO          2.4930    -0.5660     3.7340 h1         1 5BO       0.041700
     50 HAOA         2.2000    -1.5880     2.3260 h1         1 5BO       0.041700
     51 HAP          6.1640    -0.9960     1.9010 h1         1 5BO       0.076950
     52 HAPA         5.9270    -2.0150     0.4870 h1         1 5BO       0.076950
     53 HAQ          2.8520     0.7380     1.6510 h1         1 5BO       0.076950
     54 HAQA         4.3180     0.6130     2.6020 h1         1 5BO       0.076950
     55 HNAS        -1.9620     2.4570    -1.6270 hn         1 5BO       0.339500
     56 SBD          3.4890    -1.0440    -0.5410 sy         1 5BO       1.171600
     57 CAC          3.4240    -3.0680     4.2800 c3         1 5BO       0.147100
@<TRIPOS>BOND
     1     1    10 1   
     2     1    29 1   
     3     1    30 1   
     4     1    31 1   
     5     2    11 1   
     6     2    32 1   
     7     2    33 1   
     8     2    34 1   
     9     3    26 2   
    10     4    56 2   
    11     5    56 2   
    12     6    23 1   
    13     7     8 ar  
    14     7    20 ar  
    15     7    38 1   
    16     8    21 ar  
    17     8    39 1   
    18     9    20 ar  
    19     9    24 ar  
    20     9    40 1   
    21    10    12 1   
    22    10    41 1   
    23    10    42 1   
    24    11    22 1   
    25    11    43 1   
    26    11    44 1   
    27    12    19 1   
    28    12    45 1   
    29    12    46 1   
    30    13    15 1   
    31    13    27 1   
    32    13    47 1   
    33    13    48 1   
    34    14    16 1   
    35    14    27 1   
    36    14    49 1   
    37    14    50 1   
    38    15    28 1   
    39    15    51 1   
    40    15    52 1   
    41    16    28 1   
    42    16    53 1   
    43    16    54 1   
    44    17    22 1   
    45    17    25 2   
    46    18    25 1   
    47    18    26 1   
    48    18    55 1   
    49    19    21 1   
    50    20    56 1   
    51    21    24 ar  
    52    22    23 2   
    53    23    26 1   
    54    24    25 1   
    55    27    57 1   
    56    28    56 1   
    57    35    57 1   
    58    36    57 1   
    59    37    57 1   
@<TRIPOS>SUBSTRUCTURE
     1 5BO         1 TEMP              0 ****  ****    0 ROOT
