@<TRIPOS>MOLECULE
5BP
   31    34     1     0     0
SMALL
No Charge or Current Charge


@<TRIPOS>ATOM
      1 N1         -16.5280   204.8610   113.0880 nc         1 5BP      -0.522100
      2 C4         -14.3110   205.3120   113.5890 cc         1 5BP      -0.085000
      3 C5         -13.2010   205.4740   114.4560 cc         1 5BP      -0.025000
      4 C6         -13.4690   205.2880   115.7900 cd         1 5BP      -0.162000
      5 C7         -14.8200   204.9500   116.1870 cd         1 5BP       0.291900
      6 C10        -13.4560   205.7770   111.2070 ca         1 5BP       0.272800
      7 C15        -13.6960   205.5500   109.8400 ca         1 5BP      -0.279000
      8 C17         -9.9550   207.8220   112.3910 cx         1 5BP       0.181500
      9 C2         -15.8290   205.1270   111.9910 cd         1 5BP       0.390500
     10 C3         -14.4480   205.4030   112.2260 cd         1 5BP      -0.358400
     11 N8         -15.8790   204.7890   115.3750 nc         1 5BP      -0.425800
     12 N9         -15.5660   204.9830   114.0470 na         1 5BP       0.415200
     13 N11        -12.3490   206.4300   111.6070 nb         1 5BP      -0.265000
     14 C12        -11.4820   206.8090   110.6500 ca         1 5BP       0.387900
     15 N13        -11.6110   206.6190   109.3270 nb         1 5BP      -0.248000
     16 C14        -12.7280   205.9870   108.9220 ca         1 5BP       0.151900
     17 N16        -10.3260   207.4670   111.0480 nu         1 5BP      -0.906100
     18 C18         -9.2890   206.7610   113.2320 cx         1 5BP      -0.134400
     19 C19         -8.4820   207.9210   112.7010 cx         1 5BP      -0.134400
     20 H5         -12.2100   205.7190   114.0910 ha         1 5BP       0.164000
     21 H6         -12.6870   205.3890   116.5350 ha         1 5BP       0.135000
     22 H7         -15.0630   204.7980   117.2300 h4         1 5BP       0.042100
     23 H15        -14.5910   205.0450   109.4930 ha         1 5BP       0.132000
     24 H17        -10.6310   208.5180   112.8950 h1         1 5BP       0.081700
     25 H2         -16.3460   205.1220   111.0400 h4         1 5BP       0.053800
     26 H14        -12.8490   205.8340   107.8510 h4         1 5BP       0.021100
     27 HN16        -9.7230   207.7360   110.2680 hn         1 5BP       0.510000
     28 H18         -9.5190   206.7460   114.2940 hc         1 5BP       0.078200
     29 H18A        -9.1300   205.7830   112.7850 hc         1 5BP       0.078200
     30 H19         -7.7720   207.7200   111.9030 hc         1 5BP       0.078200
     31 H19A        -8.1690   208.6860   113.4070 hc         1 5BP       0.078200
@<TRIPOS>BOND
     1     1     9 2   
     2     1    12 1   
     3     2     3 1   
     4     2    10 2   
     5     2    12 1   
     6     3     4 2   
     7     3    20 1   
     8     4     5 1   
     9     4    21 1   
    10     5    11 2   
    11     5    22 1   
    12     6     7 ar  
    13     6    10 1   
    14     6    13 ar  
    15     7    16 ar  
    16     7    23 1   
    17     8    17 1   
    18     8    18 1   
    19     8    19 1   
    20     8    24 1   
    21     9    10 1   
    22     9    25 1   
    23    11    12 1   
    24    13    14 ar  
    25    14    15 ar  
    26    14    17 1   
    27    15    16 ar  
    28    16    26 1   
    29    17    27 1   
    30    18    19 1   
    31    18    28 1   
    32    18    29 1   
    33    19    30 1   
    34    19    31 1   
@<TRIPOS>SUBSTRUCTURE
     1 5BP         1 TEMP              0 ****  ****    0 ROOT
