@<TRIPOS>MOLECULE
5BP
   31    34     1     0     0
SMALL
abcg2


@<TRIPOS>ATOM
      1 N1         -16.1830   204.3500   113.1310 nc         1 5BP      -0.522100
      2 C4         -14.2060   205.4010   113.5400 cc         1 5BP      -0.085000
      3 C5         -13.2520   205.8880   114.4530 cc         1 5BP      -0.025000
      4 C6         -13.4990   205.7180   115.7860 cd         1 5BP      -0.162000
      5 C7         -14.6900   205.0670   116.1910 cd         1 5BP       0.291900
      6 C10        -13.4740   205.8520   111.1260 ca         1 5BP       0.272800
      7 C15        -13.7690   205.7670   109.7610 ca         1 5BP      -0.279000
      8 C17        -10.0020   207.6450   112.4210 cx         1 5BP       0.181500
      9 C2         -15.6100   204.6910   111.9760 cd         1 5BP       0.390500
     10 C3         -14.3780   205.3480   112.1460 cd         1 5BP      -0.358400
     11 N8         -15.5950   204.6040   115.3650 nc         1 5BP      -0.425800
     12 N9         -15.3290   204.7830   114.0730 na         1 5BP       0.415200
     13 N11        -12.3310   206.4080   111.5500 nb         1 5BP      -0.265000
     14 C12        -11.4810   206.8660   110.6220 ca         1 5BP       0.387900
     15 N13        -11.6780   206.8310   109.2870 nb         1 5BP      -0.248000
     16 C14        -12.8230   206.2810   108.8890 ca         1 5BP       0.151900
     17 N16        -10.3110   207.4060   111.0460 nu         1 5BP      -0.906100
     18 C18         -9.4750   206.5150   113.2610 cx         1 5BP      -0.134400
     19 C19         -8.5560   207.6220   112.8130 cx         1 5BP      -0.134400
     20 H5         -12.3660   206.3730   114.0750 ha         1 5BP       0.164000
     21 H6         -12.8060   206.0690   116.5370 ha         1 5BP       0.135000
     22 H7         -14.9120   204.9190   117.2400 h4         1 5BP       0.042100
     23 H15        -14.6850   205.3310   109.3940 ha         1 5BP       0.132000
     24 H17        -10.6420   208.3640   112.9210 h1         1 5BP       0.081700
     25 H2         -16.1080   204.4450   111.0510 h4         1 5BP       0.053800
     26 H14        -12.9940   206.2490   107.8170 h4         1 5BP       0.021100
     27 HN16        -9.7520   207.8590   110.3400 hn         1 5BP       0.510000
     28 H18         -9.7750   206.4800   114.3000 hc         1 5BP       0.078200
     29 H18A        -9.3760   205.5540   112.7750 hc         1 5BP       0.078200
     30 H19         -7.8390   207.3930   112.0350 hc         1 5BP       0.078200
     31 H19A        -8.2220   208.3460   113.5430 hc         1 5BP       0.078200
@<TRIPOS>BOND
     1     1     9 2   
     2     1    12 1   
     3     2     3 1   
     4     2    10 2   
     5     2    12 1   
     6     3     4 2   
     7     3    20 1   
     8     4     5 1   
     9     4    21 1   
    10     5    11 2   
    11     5    22 1   
    12     6     7 ar  
    13     6    10 1   
    14     6    13 ar  
    15     7    16 ar  
    16     7    23 1   
    17     8    17 1   
    18     8    18 1   
    19     8    19 1   
    20     8    24 1   
    21     9    10 1   
    22     9    25 1   
    23    11    12 1   
    24    13    14 ar  
    25    14    15 ar  
    26    14    17 1   
    27    15    16 ar  
    28    16    26 1   
    29    17    27 1   
    30    18    19 1   
    31    18    28 1   
    32    18    29 1   
    33    19    30 1   
    34    19    31 1   
@<TRIPOS>SUBSTRUCTURE
     1 5BP         1 TEMP              0 ****  ****    0 ROOT
