@<TRIPOS>MOLECULE
5BQ
   34    35     1     0     0
SMALL
No Charge or Current Charge


@<TRIPOS>ATOM
      1 OAB          3.9070     1.7150     0.3630 o          1 5BQ      -0.484100
      2 CAN          3.6870     0.5260     0.5300 c          1 5BQ       0.594600
      3 CAL          4.5700    -0.3590     1.4240 c6         1 5BQ      -0.181400
      4 CAK          5.2740    -1.4860     0.6010 c6         1 5BQ      -0.063400
      5 CAM          4.3570    -2.1610    -0.4690 c6         1 5BQ      -0.181400
      6 CAO          3.4920    -1.1260    -1.2050 c          1 5BQ       0.594600
      7 OAC          3.5930    -0.9200    -2.4040 o          1 5BQ      -0.484100
      8 CAT          2.6890    -0.2550    -0.2800 c6         1 5BQ      -0.397700
      9 CAP          1.5770     0.5510    -0.9210 c          1 5BQ       0.607700
     10 OAD          1.8120     1.4210    -1.7470 o          1 5BQ      -0.448100
     11 CAS          0.1710     0.1910    -0.5240 ca         1 5BQ      -0.106600
     12 CAQ         -0.7400     1.1800    -0.0920 ca         1 5BQ       0.141000
     13 ClA         -0.2630     2.8720     0.0600 cl         1 5BQ      -0.150000
     14 CAJ         -2.0520     0.8260     0.2670 ca         1 5BQ      -0.024000
     15 CAR         -2.4740    -0.5190     0.2000 ca         1 5BQ      -0.238500
     16 SAU         -4.1640    -0.9650     0.6530 sy         1 5BQ       1.055500
     17 OAE         -4.1970    -2.3840     1.0310 o          1 5BQ      -0.517500
     18 OAF         -4.7080     0.0730     1.5380 o          1 5BQ      -0.517500
     19 CAA         -5.0490    -0.8290    -0.8990 c3         1 5BQ      -0.336100
     20 CAH         -1.5690    -1.5090    -0.2320 ca         1 5BQ      -0.027000
     21 CAI         -0.2570    -1.1550    -0.5890 ca         1 5BQ      -0.096000
     22 H1           5.2920     0.2530     1.9820 hc         1 5BQ       0.075200
     23 H2           3.9020    -0.8810     2.1230 hc         1 5BQ       0.075200
     24 H3           6.1370    -1.0430     0.0820 hc         1 5BQ       0.060700
     25 H4           5.6920    -2.2450     1.2770 hc         1 5BQ       0.060700
     26 H5           4.9340    -2.7620    -1.1840 hc         1 5BQ       0.075200
     27 H6           3.6740    -2.8080     0.0990 hc         1 5BQ       0.075200
     28 H7           2.2810    -0.9650     0.4490 hc         1 5BQ       0.098700
     29 H8          -2.7360     1.6040     0.6020 ha         1 5BQ       0.155000
     30 H9          -4.5970    -1.5260    -1.6120 h1         1 5BQ       0.105700
     31 H10         -6.0980    -1.0850    -0.7170 h1         1 5BQ       0.105700
     32 H11         -4.9580     0.2020    -1.2550 h1         1 5BQ       0.105700
     33 H12         -1.8760    -2.5520    -0.2960 ha         1 5BQ       0.144000
     34 H13          0.4240    -1.9320    -0.9310 ha         1 5BQ       0.124000
@<TRIPOS>BOND
     1     1     2 2   
     2     2     3 1   
     3     2     8 1   
     4     3     4 1   
     5     3    22 1   
     6     3    23 1   
     7     4     5 1   
     8     4    24 1   
     9     4    25 1   
    10     5     6 1   
    11     5    26 1   
    12     5    27 1   
    13     6     7 2   
    14     6     8 1   
    15     8     9 1   
    16     8    28 1   
    17     9    10 2   
    18     9    11 1   
    19    11    12 ar  
    20    11    21 ar  
    21    12    13 1   
    22    12    14 ar  
    23    14    15 ar  
    24    14    29 1   
    25    15    16 1   
    26    15    20 ar  
    27    16    17 2   
    28    16    18 2   
    29    16    19 1   
    30    19    30 1   
    31    19    31 1   
    32    19    32 1   
    33    20    21 ar  
    34    20    33 1   
    35    21    34 1   
@<TRIPOS>SUBSTRUCTURE
     1 5BQ         1 TEMP              0 ****  ****    0 ROOT
