@<TRIPOS>MOLECULE
5BQ
   34    35     1     0     0
SMALL
bcc


@<TRIPOS>ATOM
      1 OAB          3.2690     1.4290     1.1430 o          1 5BQ      -0.484100
      2 CAN          3.5290     0.2870     0.8670 c          1 5BQ       0.594600
      3 CAL          4.7130    -0.4680     1.3950 c6         1 5BQ      -0.181400
      4 CAK          5.4730    -1.1500     0.2610 c6         1 5BQ      -0.063400
      5 CAM          4.5780    -2.0900    -0.5430 c6         1 5BQ      -0.181400
      6 CAO          3.3610    -1.3860    -1.0670 c          1 5BQ       0.594600
      7 OAC          2.9470    -1.4960    -2.1930 o          1 5BQ      -0.484100
      8 CAT          2.6110    -0.5340    -0.0440 c6         1 5BQ      -0.397700
      9 CAP          1.5760     0.3560    -0.7030 c          1 5BQ       0.607700
     10 OAD          1.9080     1.2170    -1.4740 o          1 5BQ      -0.448100
     11 CAS          0.1430     0.1190    -0.3620 ca         1 5BQ      -0.106600
     12 CAQ         -0.7590     1.1580    -0.1280 ca         1 5BQ       0.049400
     13 CLA         -0.2490     2.8040    -0.1020 cl         1 5BQ      -0.058400
     14 CAJ         -2.0900     0.8930     0.1500 ca         1 5BQ      -0.042000
     15 CAR         -2.5210    -0.4240     0.1580 ca         1 5BQ      -0.238500
     16 SAU         -4.2370    -0.7660     0.5050 sy         1 5BQ       1.086300
     17 OAE         -4.3190    -2.1230     1.0340 o          1 5BQ      -0.588300
     18 OAF         -4.7680     0.3400     1.2960 o          1 5BQ      -0.588300
     19 CAA         -4.9940    -0.7310    -1.1010 c3         1 5BQ      -0.225300
     20 CAH         -1.6550    -1.4770    -0.0790 ca         1 5BQ      -0.045000
     21 CAI         -0.3240    -1.1920    -0.3270 ca         1 5BQ      -0.114000
     22 H1           5.3560     0.2110     1.9540 hc         1 5BQ       0.075200
     23 H2           4.3410    -1.2260     2.0940 hc         1 5BQ       0.075200
     24 H3           5.9060    -0.3960    -0.4000 hc         1 5BQ       0.060700
     25 H4           6.3040    -1.7190     0.6770 hc         1 5BQ       0.060700
     26 H5           5.1190    -2.5380    -1.3760 hc         1 5BQ       0.075200
     27 H6           4.2330    -2.9070     0.1010 hc         1 5BQ       0.075200
     28 H7           2.1440    -1.2570     0.6400 hc         1 5BQ       0.098700
     29 H8          -2.7710     1.7070     0.3570 ha         1 5BQ       0.173000
     30 H9          -4.5420    -1.4910    -1.7330 h1         1 5BQ       0.105700
     31 H10         -6.0550    -0.9400    -0.9610 h1         1 5BQ       0.105700
     32 H11         -4.8630     0.2560    -1.5390 h1         1 5BQ       0.105700
     33 H12         -1.9940    -2.5030    -0.0630 ha         1 5BQ       0.162000
     34 H13          0.3570    -2.0140    -0.5100 ha         1 5BQ       0.142000
@<TRIPOS>BOND
     1     1     2 2   
     2     2     3 1   
     3     2     8 1   
     4     3     4 1   
     5     3    22 1   
     6     3    23 1   
     7     4     5 1   
     8     4    24 1   
     9     4    25 1   
    10     5     6 1   
    11     5    26 1   
    12     5    27 1   
    13     6     7 2   
    14     6     8 1   
    15     8     9 1   
    16     8    28 1   
    17     9    10 2   
    18     9    11 1   
    19    11    12 ar  
    20    11    21 ar  
    21    12    13 1   
    22    12    14 ar  
    23    14    15 ar  
    24    14    29 1   
    25    15    16 1   
    26    15    20 ar  
    27    16    17 2   
    28    16    18 2   
    29    16    19 1   
    30    19    30 1   
    31    19    31 1   
    32    19    32 1   
    33    20    21 ar  
    34    20    33 1   
    35    21    34 1   
@<TRIPOS>SUBSTRUCTURE
     1 5BQ         1 TEMP              0 ****  ****    0 ROOT
