@<TRIPOS>MOLECULE
5BR
   17    16     1     0     0
SMALL
No Charge or Current Charge


@<TRIPOS>ATOM
      1 Br1          0.0800    -0.0550    -2.0670 br         1 5BR      -0.282000
      2 C1          -0.8150    -0.0240    -0.2880 c3         1 5BR       0.097600
      3 C2           0.2130    -0.0230     0.8600 c3         1 5BR      -0.078400
      4 C3          -0.4440     0.0000     2.2570 c3         1 5BR      -0.079400
      5 C4           0.5850     0.0010     3.4090 c3         1 5BR      -0.075400
      6 C5          -0.0700     0.0240     4.8030 c3         1 5BR      -0.089100
      7 H11         -1.4580    -0.9130    -0.2370 h1         1 5BR       0.069700
      8 H12         -1.4370     0.8800    -0.2580 h1         1 5BR       0.069700
      9 H21          0.8680     0.8510     0.7510 hc         1 5BR       0.055700
     10 H22          0.8480    -0.9140     0.7710 hc         1 5BR       0.055700
     11 H31         -1.1000    -0.8740     2.3610 hc         1 5BR       0.039700
     12 H32         -1.0800     0.8900     2.3410 hc         1 5BR       0.039700
     13 H41          1.2420     0.8750     3.3090 hc         1 5BR       0.039700
     14 H42          1.2220    -0.8890     3.3290 hc         1 5BR       0.039700
     15 H51          0.6970     0.0250     5.5860 hc         1 5BR       0.033033
     16 H52         -0.6870     0.9230     4.9270 hc         1 5BR       0.033033
     17 H53         -0.7070    -0.8570     4.9470 hc         1 5BR       0.033033
@<TRIPOS>BOND
     1     1     2 1   
     2     2     3 1   
     3     2     7 1   
     4     2     8 1   
     5     3     4 1   
     6     3     9 1   
     7     3    10 1   
     8     4     5 1   
     9     4    11 1   
    10     4    12 1   
    11     5     6 1   
    12     5    13 1   
    13     5    14 1   
    14     6    15 1   
    15     6    16 1   
    16     6    17 1   
@<TRIPOS>SUBSTRUCTURE
     1 5BR         1 TEMP              0 ****  ****    0 ROOT
