@<TRIPOS>MOLECULE
5BR
   17    16     1     0     0
SMALL
abcg2


@<TRIPOS>ATOM
      1 BR1          0.0200    -0.0530    -2.0170 br         1 5BR      -0.282000
      2 C1          -0.8040    -0.0240    -0.2220 c3         1 5BR       0.097600
      3 C2           0.2400    -0.0240     0.8720 c3         1 5BR      -0.078400
      4 C3          -0.4280     0.0000     2.2450 c3         1 5BR      -0.079400
      5 C4           0.5830     0.0020     3.3860 c3         1 5BR      -0.075400
      6 C5          -0.0820     0.0240     4.7550 c3         1 5BR      -0.089100
      7 H11         -1.4460    -0.9020    -0.1710 h1         1 5BR       0.069700
      8 H12         -1.4260     0.8700    -0.1900 h1         1 5BR       0.069700
      9 H21          0.8940     0.8460     0.7670 hc         1 5BR       0.055700
     10 H22          0.8720    -0.9120     0.7880 hc         1 5BR       0.055700
     11 H31         -1.0890    -0.8670     2.3470 hc         1 5BR       0.039700
     12 H32         -1.0690     0.8840     2.3270 hc         1 5BR       0.039700
     13 H41          1.2420     0.8680     3.2830 hc         1 5BR       0.039700
     14 H42          1.2240    -0.8810     3.3020 hc         1 5BR       0.039700
     15 H51          0.6550     0.0240     5.5590 hc         1 5BR       0.033033
     16 H52         -0.7050     0.9130     4.8760 hc         1 5BR       0.033033
     17 H53         -0.7240    -0.8480     4.8960 hc         1 5BR       0.033033
@<TRIPOS>BOND
     1     1     2 1   
     2     2     3 1   
     3     2     7 1   
     4     2     8 1   
     5     3     4 1   
     6     3     9 1   
     7     3    10 1   
     8     4     5 1   
     9     4    11 1   
    10     4    12 1   
    11     5     6 1   
    12     5    13 1   
    13     5    14 1   
    14     6    15 1   
    15     6    16 1   
    16     6    17 1   
@<TRIPOS>SUBSTRUCTURE
     1 5BR         1 TEMP              0 ****  ****    0 ROOT
