@<TRIPOS>MOLECULE
5BS
   44    47     1     0     0
SMALL
No Charge or Current Charge


@<TRIPOS>ATOM
      1 C4          -2.2910     0.3950    -0.5930 ca         1 5BS       0.405900
      2 C5          -2.2770    -1.0160    -0.7040 ca         1 5BS      -0.102400
      3 C6          -1.0220    -1.6430    -0.5360 ca         1 5BS       0.128900
      4 N1           0.1180    -0.9480    -0.3980 nb         1 5BS      -0.225000
      5 N3          -1.1390     1.0840    -0.4600 nb         1 5BS      -0.296000
      6 NAZ         -3.4770    -1.8160    -0.6200 n          1 5BS      -0.296000
      7 CAU         -4.5320    -1.5680     0.2950 c          1 5BS       0.619600
      8 OAD         -5.3140    -2.4610     0.6010 o          1 5BS      -0.546000
      9 CAY         -4.6470    -0.2370     0.9150 cc         1 5BS      -0.350600
     10 SAQ         -5.7020     0.0100     2.3020 ss         1 5BS       0.346000
     11 CAG         -5.5040     1.7630     2.2140 cc         1 5BS      -0.239000
     12 CAL         -4.6780     2.1060     1.1730 cd         1 5BS      -0.172000
     13 CAW         -4.1830     0.9740     0.4800 cd         1 5BS       0.318000
     14 NBA         -3.5080     1.0450    -0.7220 na         1 5BS      -0.766100
     15 CAB         -3.6190     2.1620    -1.6880 c3         1 5BS       0.209100
     16 C2          -0.0020     0.3860    -0.3670 ca         1 5BS       0.401900
     17 NAP          1.1410     1.1640    -0.2650 nu         1 5BS      -0.927900
     18 CAR          2.4940     0.8980    -0.0400 ca         1 5BS       0.378000
     19 CAH          3.4420     1.8130    -0.5210 ca         1 5BS      -0.184000
     20 CAJ          4.8150     1.6000    -0.3110 ca         1 5BS       0.024500
     21 CAT          5.2460     0.4620     0.3960 ca         1 5BS      -0.313500
     22 SBB          6.9950     0.1830     0.6700 sy         1 5BS       1.139600
     23 OAE          7.2590    -1.2190     0.9830 o          1 5BS      -0.550500
     24 OAF          7.8020     0.9360    -0.2880 o          1 5BS      -0.550500
     25 NAC          7.2660     0.9480     2.0820 n8         1 5BS      -1.004100
     26 CAK          4.2990    -0.4510     0.8980 ca         1 5BS       0.024500
     27 CAI          2.9290    -0.2270     0.6810 ca         1 5BS      -0.184000
     28 H1          -0.9250    -2.7270    -0.5010 h4         1 5BS       0.034100
     29 H2          -3.1950    -3.9190    -0.6150 h1         1 5BS       0.048367
     30 H3          -4.4710    -3.3340    -1.7250 h1         1 5BS       0.048367
     31 H4          -2.7580    -3.1080    -2.1490 h1         1 5BS       0.048367
     32 H7          -6.0290     2.3960     2.9170 h4         1 5BS       0.155000
     33 H8          -4.4470     3.1290     0.8990 ha         1 5BS       0.142000
     34 H9          -3.1740     1.8740    -2.6500 h1         1 5BS       0.049033
     35 H10         -4.6760     2.4130    -1.8490 h1         1 5BS       0.049033
     36 H11         -3.0970     3.0480    -1.3030 h1         1 5BS       0.049033
     37 H12          0.9530     2.1430    -0.4740 hn         1 5BS       0.512000
     38 H13          3.1190     2.6930    -1.0690 ha         1 5BS       0.136000
     39 H14          5.5350     2.3210    -0.6970 ha         1 5BS       0.136000
     40 H15          8.0550     1.5350     1.8210 hn         1 5BS       0.471000
     41 H16          7.7190     0.2040     2.6070 hn         1 5BS       0.471000
     42 H17          4.6160    -1.3280     1.4610 ha         1 5BS       0.136000
     43 H18          2.2130    -0.9270     1.0970 ha         1 5BS       0.136000
     44 CAA         -3.4740    -3.1240    -1.3180 c3         1 5BS       0.086300
@<TRIPOS>BOND
     1     1     2 ar  
     2     1     5 ar  
     3     1    14 1   
     4     2     3 ar  
     5     2     6 1   
     6     3     4 ar  
     7     3    28 1   
     8     4    16 ar  
     9     5    16 ar  
    10     6     7 1   
    11     6    44 1   
    12     7     8 2   
    13     7     9 1   
    14     9    10 1   
    15     9    13 2   
    16    10    11 1   
    17    11    12 2   
    18    11    32 1   
    19    12    13 1   
    20    12    33 1   
    21    13    14 1   
    22    14    15 1   
    23    15    34 1   
    24    15    35 1   
    25    15    36 1   
    26    16    17 1   
    27    17    18 1   
    28    17    37 1   
    29    18    19 ar  
    30    18    27 ar  
    31    19    20 ar  
    32    19    38 1   
    33    20    21 ar  
    34    20    39 1   
    35    21    22 1   
    36    21    26 ar  
    37    22    23 2   
    38    22    24 2   
    39    22    25 1   
    40    25    40 1   
    41    25    41 1   
    42    26    27 ar  
    43    26    42 1   
    44    27    43 1   
    45    29    44 1   
    46    30    44 1   
    47    31    44 1   
@<TRIPOS>SUBSTRUCTURE
     1 5BS         1 TEMP              0 ****  ****    0 ROOT
