@<TRIPOS>MOLECULE
5BS
   44    47     1     0     0
SMALL
bcc


@<TRIPOS>ATOM
      1 C4          -2.2000     0.4070    -0.4180 ca         1 5BS       0.734200
      2 C5          -2.2330    -0.9690    -0.1220 ca         1 5BS      -0.233000
      3 C6          -1.0140    -1.5180     0.2260 ca         1 5BS       0.457200
      4 N1           0.1370    -0.8540     0.2050 nb         1 5BS      -0.751000
      5 N3          -1.0590     1.0590    -0.4780 nb         1 5BS      -0.822000
      6 NAZ         -3.3570    -1.7990    -0.3130 n          1 5BS      -0.363000
      7 CAU         -4.5520    -1.5980     0.3160 c          1 5BS       0.762100
      8 OAD         -5.3480    -2.5080     0.4840 o          1 5BS      -0.621500
      9 CAY         -4.8730    -0.2380     0.7230 cc         1 5BS      -0.205700
     10 SAQ         -6.2260    -0.0250     1.7680 ss         1 5BS       0.056200
     11 CAG         -6.1790     1.6610     1.5590 cc         1 5BS      -0.112100
     12 CAL         -5.1870     2.0610     0.7180 cd         1 5BS      -0.190000
     13 CAW         -4.4280     0.9660     0.2240 cd         1 5BS       0.179600
     14 NBA         -3.3510     1.1330    -0.6450 na         1 5BS      -0.627700
     15 CAB         -3.2210     2.4160    -1.3130 c3         1 5BS       0.209100
     16 C2           0.0640     0.4030    -0.1950 ca         1 5BS       0.927900
     17 NAP          1.1940     1.1590    -0.3370 nu         1 5BS      -0.734300
     18 CAR          2.5310     0.8620    -0.1570 ca         1 5BS       0.239600
     19 CAH          3.4400     1.8890    -0.4420 ca         1 5BS      -0.202000
     20 CAJ          4.7980     1.6990    -0.2980 ca         1 5BS       0.006500
     21 CAT          5.2730     0.4720     0.1420 ca         1 5BS      -0.313500
     22 SBB          7.0060     0.2070     0.3280 sy         1 5BS       1.281200
     23 OAE          7.3390    -1.1530    -0.0570 o          1 5BS      -0.621300
     24 OAF          7.6890     1.3260    -0.3000 o          1 5BS      -0.621300
     25 NAC          7.1700     0.2420     1.9840 n8         1 5BS      -0.893700
     26 CAK          4.3870    -0.5580     0.4240 ca         1 5BS       0.006500
     27 CAI          3.0250    -0.3730     0.2790 ca         1 5BS      -0.202000
     28 H1          -0.9500    -2.5630     0.5070 h4         1 5BS       0.034100
     29 H2          -2.9130    -3.8790    -0.1780 h1         1 5BS       0.048367
     30 H3          -4.0210    -3.4120    -1.4690 h1         1 5BS       0.048367
     31 H4          -2.3050    -3.0300    -1.6120 h1         1 5BS       0.048367
     32 H7          -6.8780     2.2940     2.0810 h4         1 5BS       0.173000
     33 H8          -5.0030     3.0970     0.4840 ha         1 5BS       0.160000
     34 H9          -2.5300     2.3210    -2.1450 h1         1 5BS       0.049033
     35 H10         -4.1930     2.7000    -1.7110 h1         1 5BS       0.049033
     36 H11         -2.8600     3.2090    -0.6550 h1         1 5BS       0.049033
     37 H12          0.9940     2.1000    -0.6370 hn         1 5BS       0.456800
     38 H13          3.0760     2.8490    -0.7890 ha         1 5BS       0.154000
     39 H14          5.4790     2.5050    -0.5350 ha         1 5BS       0.154000
     40 H15          7.2190     1.1840     2.3530 hn         1 5BS       0.415800
     41 H16          7.9700    -0.3030     2.2840 hn         1 5BS       0.415800
     42 H17          4.7520    -1.5190     0.7600 ha         1 5BS       0.154000
     43 H18          2.3490    -1.1820     0.4990 ha         1 5BS       0.154000
     44 CAA         -3.1370    -3.1050    -0.9160 c3         1 5BS       0.086300
@<TRIPOS>BOND
     1     1     2 ar  
     2     1     5 ar  
     3     1    14 1   
     4     2     3 ar  
     5     2     6 1   
     6     3     4 ar  
     7     3    28 1   
     8     4    16 ar  
     9     5    16 ar  
    10     6     7 1   
    11     6    44 1   
    12     7     8 2   
    13     7     9 1   
    14     9    10 1   
    15     9    13 2   
    16    10    11 1   
    17    11    12 2   
    18    11    32 1   
    19    12    13 1   
    20    12    33 1   
    21    13    14 1   
    22    14    15 1   
    23    15    34 1   
    24    15    35 1   
    25    15    36 1   
    26    16    17 1   
    27    17    18 1   
    28    17    37 1   
    29    18    19 ar  
    30    18    27 ar  
    31    19    20 ar  
    32    19    38 1   
    33    20    21 ar  
    34    20    39 1   
    35    21    22 1   
    36    21    26 ar  
    37    22    23 2   
    38    22    24 2   
    39    22    25 1   
    40    25    40 1   
    41    25    41 1   
    42    26    27 ar  
    43    26    42 1   
    44    27    43 1   
    45    29    44 1   
    46    30    44 1   
    47    31    44 1   
@<TRIPOS>SUBSTRUCTURE
     1 5BS         1 TEMP              0 ****  ****    0 ROOT
