@<TRIPOS>MOLECULE
5BT
   29    30     1     0     0
SMALL
No Charge or Current Charge


@<TRIPOS>ATOM
      1 N1           0.1850    -0.0270    -0.0340 n          1 5BT      -0.317000
      2 C2           0.2190     1.3650    -0.2750 c          1 5BT       0.727400
      3 O2           1.2500     2.0020    -0.4090 o          1 5BT      -0.547000
      4 N3          -0.9730     2.0270    -0.4000 nc         1 5BT      -0.782100
      5 C4          -2.0900     1.3880    -0.3050 cd         1 5BT       0.812500
      6 N4          -3.1580     2.1520    -0.4540 nv         1 5BT      -1.025200
      7 C5          -2.2140    -0.0160    -0.0940 cd         1 5BT      -0.353900
      8 Br5         -3.8850    -0.9030     0.0070 br         1 5BT      -0.058700
      9 C6          -1.0310    -0.7050     0.0400 cc         1 5BT       0.061600
     10 C1           1.4360    -0.8020     0.1820 c5         1 5BT       0.341700
     11 C7           2.0570    -1.1210    -1.2150 c5         1 5BT      -0.146400
     12 C3           3.4390    -0.4120    -1.1390 c5         1 5BT       0.139300
     13 O3           4.4260    -1.0860    -1.9280 oh         1 5BT      -0.713000
     14 C8           3.7100    -0.4870     0.3940 c5         1 5BT       0.173300
     15 O4           2.4330    -0.0950     0.9380 os         1 5BT      -0.432000
     16 C9           4.8430     0.4490     0.9010 c3         1 5BT       0.160600
     17 O5           5.1420     0.2150     2.2930 oh         1 5BT      -0.713000
     18 HN4         -2.9510     3.0320    -0.9040 hn         1 5BT       0.509500
     19 HN4A        -3.9870     1.6730    -0.7780 hn         1 5BT       0.509500
     20 H6          -0.9370    -1.7750     0.2090 h4         1 5BT       0.213000
     21 H1           1.1680    -1.7290     0.7040 h2         1 5BT       0.055700
     22 H2           2.1620    -2.2050    -1.3370 hc         1 5BT       0.070700
     23 H2'A         1.4540    -0.7610    -2.0560 hc         1 5BT       0.070700
     24 H3           3.3500     0.6410    -1.4450 h1         1 5BT       0.076700
     25 HO3          4.1570    -0.9940    -2.8730 ho         1 5BT       0.510000
     26 H4           3.9330    -1.5190     0.7000 h1         1 5BT       0.073700
     27 H5           5.7390     0.2690     0.2910 h1         1 5BT       0.038700
     28 H5'A         4.5380     1.4920     0.7390 h1         1 5BT       0.038700
     29 HO5          5.8230     0.8780     2.5570 ho         1 5BT       0.504000
@<TRIPOS>BOND
     1     1     2 1   
     2     1     9 1   
     3     1    10 1   
     4     2     3 2   
     5     2     4 1   
     6     4     5 2   
     7     5     6 1   
     8     5     7 1   
     9     6    18 1   
    10     6    19 1   
    11     7     8 1   
    12     7     9 2   
    13     9    20 1   
    14    10    11 1   
    15    10    15 1   
    16    10    21 1   
    17    11    12 1   
    18    11    22 1   
    19    11    23 1   
    20    12    13 1   
    21    12    14 1   
    22    12    24 1   
    23    13    25 1   
    24    14    15 1   
    25    14    16 1   
    26    14    26 1   
    27    16    17 1   
    28    16    27 1   
    29    16    28 1   
    30    17    29 1   
@<TRIPOS>SUBSTRUCTURE
     1 5BT         1 TEMP              0 ****  ****    0 ROOT
