@<TRIPOS>MOLECULE
5BT
   29    30     1     0     0
SMALL
abcg2


@<TRIPOS>ATOM
      1 N1           0.2480    -0.1640    -0.2010 n          1 5BT      -0.317000
      2 C2           0.3680     1.1840    -0.5840 c          1 5BT       0.727400
      3 O2           1.4610     1.6230    -0.9010 o          1 5BT      -0.547000
      4 N3          -0.7490     1.9390    -0.5920 nc         1 5BT      -0.782100
      5 C4          -1.9280     1.4650    -0.2490 cd         1 5BT       0.812500
      6 N4          -2.9700     2.2880    -0.2940 nv         1 5BT      -1.025200
      7 C5          -2.0680     0.0980     0.1640 cd         1 5BT      -0.353900
      8 BR5         -3.7160    -0.6320     0.6870 br         1 5BT      -0.058700
      9 C6          -0.9500    -0.6600     0.1710 cc         1 5BT       0.061600
     10 C1           1.4170    -1.0450    -0.1570 c5         1 5BT       0.341700
     11 C7           2.2010    -1.1770    -1.4650 c5         1 5BT      -0.146400
     12 C3           3.5540    -0.5260    -1.1810 c5         1 5BT       0.139300
     13 O3           4.6590    -1.2100    -1.7190 oh         1 5BT      -0.713000
     14 C8           3.6370    -0.5760     0.3450 c5         1 5BT       0.173300
     15 O4           2.3020    -0.5940     0.8250 os         1 5BT      -0.432000
     16 C9           4.3820     0.5970     0.9320 c3         1 5BT       0.160600
     17 O5           4.5140     0.4170     2.3230 oh         1 5BT      -0.713000
     18 HN4         -2.8310     3.2360    -0.6000 hn         1 5BT       0.509500
     19 HN4A        -3.9080     2.0030    -0.0720 hn         1 5BT       0.509500
     20 H6          -0.9680    -1.6990     0.4700 h4         1 5BT       0.213000
     21 H1           1.0100    -2.0190     0.1270 h2         1 5BT       0.055700
     22 H2           2.3520    -2.2380    -1.6710 hc         1 5BT       0.070700
     23 H2'A         1.6810    -0.7470    -2.3200 hc         1 5BT       0.070700
     24 H3           3.5430     0.5140    -1.5190 h1         1 5BT       0.076700
     25 HO3          4.7230    -0.9900    -2.6530 ho         1 5BT       0.510000
     26 H4           4.1410    -1.5110     0.6330 h1         1 5BT       0.073700
     27 H5           5.3600     0.6520     0.4350 h1         1 5BT       0.038700
     28 H5'A         3.8380     1.5170     0.6860 h1         1 5BT       0.038700
     29 HO5          4.9370     1.2000     2.6870 ho         1 5BT       0.504000
@<TRIPOS>BOND
     1     1     2 1   
     2     1     9 1   
     3     1    10 1   
     4     2     3 2   
     5     2     4 1   
     6     4     5 2   
     7     5     6 1   
     8     5     7 1   
     9     6    18 1   
    10     6    19 1   
    11     7     8 1   
    12     7     9 2   
    13     9    20 1   
    14    10    11 1   
    15    10    15 1   
    16    10    21 1   
    17    11    12 1   
    18    11    22 1   
    19    11    23 1   
    20    12    13 1   
    21    12    14 1   
    22    12    24 1   
    23    13    25 1   
    24    14    15 1   
    25    14    16 1   
    26    14    26 1   
    27    16    17 1   
    28    16    27 1   
    29    16    28 1   
    30    17    29 1   
@<TRIPOS>SUBSTRUCTURE
     1 5BT         1 TEMP              0 ****  ****    0 ROOT
