@<TRIPOS>MOLECULE
5BV
   39    38     1     0     0
SMALL
abcg2


@<TRIPOS>ATOM
      1 O34          1.7940     1.2620    -1.4400 o          1 5BV      -0.470000
      2 O35          0.8470     0.5130     0.4520 os         1 5BV      -0.465100
      3 O46          3.4390    -1.7660    -1.0660 o          1 5BV      -0.725000
      4 N31          2.6060     3.5820    -0.2010 n8         1 5BV      -0.962200
      5 C32          1.8820     2.5940     0.5650 c3         1 5BV       0.081800
      6 C33          1.5280     1.3890    -0.2730 c          1 5BV       0.622100
      7 C36          0.5570    -0.8010    -0.0600 c3         1 5BV       0.200300
      8 C37         -0.8620    -1.1340     0.3740 c3         1 5BV      -0.082400
      9 C38         -1.9180    -0.1670    -0.1500 c3         1 5BV      -0.074400
     10 C39         -3.3280    -0.5710     0.2650 c3         1 5BV      -0.076400
     11 C40         -4.4030     0.3690    -0.2630 c3         1 5BV      -0.076400
     12 C41         -5.8110    -0.0250     0.1690 c3         1 5BV      -0.075400
     13 C42         -6.8820     0.9090    -0.3780 c3         1 5BV      -0.087100
     14 C43          1.6200    -1.7680     0.4780 c3         1 5BV      -0.216700
     15 C44          1.3230    -3.2000     0.0480 c3         1 5BV      -0.055100
     16 C45          3.0240    -1.3070     0.0150 c          1 5BV       0.719000
     17 H1           1.9890     4.0130    -0.8770 hn         1 5BV       0.381500
     18 H2           2.8940     4.3250     0.4210 hn         1 5BV       0.381500
     19 H4           2.5130     2.2370     1.3830 h1         1 5BV       0.054200
     20 H5           0.9580     2.9570     1.0370 h1         1 5BV       0.054200
     21 H6           0.6050    -0.7860    -1.1540 h1         1 5BV       0.067700
     22 H7          -1.0980    -2.1360     0.0080 hc         1 5BV       0.040700
     23 H8          -0.9080    -1.1870     1.4680 hc         1 5BV       0.040700
     24 H9          -1.7170     0.8460     0.2090 hc         1 5BV       0.040200
     25 H10         -1.8580    -0.1240    -1.2430 hc         1 5BV       0.040200
     26 H11         -3.5330    -1.5890    -0.0860 hc         1 5BV       0.032200
     27 H12         -3.3860    -0.6110     1.3590 hc         1 5BV       0.032200
     28 H13         -4.1940     1.3900     0.0770 hc         1 5BV       0.036200
     29 H14         -4.3540     0.3990    -1.3570 hc         1 5BV       0.036200
     30 H15         -6.0160    -1.0480    -0.1600 hc         1 5BV       0.033700
     31 H16         -5.8630    -0.0420     1.2620 hc         1 5BV       0.033700
     32 H17         -6.7160     1.9370    -0.0490 hc         1 5BV       0.026700
     33 H18         -6.8840     0.9100    -1.4690 hc         1 5BV       0.026700
     34 H19         -7.8780     0.6150    -0.0460 hc         1 5BV       0.026700
     35 H20          1.5810    -1.7120     1.5720 hc         1 5BV       0.039700
     36 H21          1.1870    -3.2770    -1.0320 hc         1 5BV       0.014033
     37 H22          2.1440    -3.8640     0.3220 hc         1 5BV       0.014033
     38 H23          0.4240    -3.5890     0.5260 hc         1 5BV       0.014033
     39 O1           3.6230    -0.4990     0.7560 o          1 5BV      -0.725000
@<TRIPOS>BOND
     1     1     6 2   
     2     2     6 1   
     3     2     7 1   
     4     3    16 1   
     5     4     5 1   
     6     4    17 1   
     7     4    18 1   
     8     5     6 1   
     9     5    19 1   
    10     5    20 1   
    11     7     8 1   
    12     7    14 1   
    13     7    21 1   
    14     8     9 1   
    15     8    22 1   
    16     8    23 1   
    17     9    10 1   
    18     9    24 1   
    19     9    25 1   
    20    10    11 1   
    21    10    26 1   
    22    10    27 1   
    23    11    12 1   
    24    11    28 1   
    25    11    29 1   
    26    12    13 1   
    27    12    30 1   
    28    12    31 1   
    29    13    32 1   
    30    13    33 1   
    31    13    34 1   
    32    14    15 1   
    33    14    16 1   
    34    14    35 1   
    35    15    36 1   
    36    15    37 1   
    37    15    38 1   
    38    16    39 1   
@<TRIPOS>SUBSTRUCTURE
     1 5BV         1 TEMP              0 ****  ****    0 ROOT
