@<TRIPOS>MOLECULE
5BV
   39    38     1     0     0
SMALL
No Charge or Current Charge


@<TRIPOS>ATOM
      1 O34          0.7750     1.4080    -1.4920 o          1 5BV      -0.470000
      2 O35          1.1580     0.3010     0.4940 os         1 5BV      -0.465100
      3 O46          3.4690    -1.6320    -1.0490 o          1 5BV      -0.725000
      4 N31          1.8330     3.9490    -0.3340 n8         1 5BV      -0.962200
      5 C32          1.5750     2.6930     0.4620 c3         1 5BV       0.081800
      6 C33          1.1210     1.4130    -0.3150 c          1 5BV       0.622100
      7 C36          0.7440    -0.9770    -0.0300 c3         1 5BV       0.200300
      8 C37         -0.7340    -1.2180     0.3970 c3         1 5BV      -0.082400
      9 C38         -1.7560    -0.1800    -0.1270 c3         1 5BV      -0.074400
     10 C39         -3.2140    -0.5300     0.2430 c3         1 5BV      -0.076400
     11 C40         -4.2340     0.5080    -0.2750 c3         1 5BV      -0.076400
     12 C41         -5.6920     0.1590     0.0940 c3         1 5BV      -0.075400
     13 C42         -6.7100     1.1930    -0.4220 c3         1 5BV      -0.087100
     14 C43          1.7390    -2.0230     0.5400 c3         1 5BV      -0.216700
     15 C44          1.4220    -3.4800     0.1140 c3         1 5BV      -0.055100
     16 C45          3.1810    -1.6550     0.1390 c          1 5BV       0.719000
     17 H1           0.9700     4.2290    -0.8180 hn         1 5BV       0.381500
     18 H2           2.0230     4.7300     0.3080 hn         1 5BV       0.381500
     19 H4           2.4920     2.4320     1.0070 h1         1 5BV       0.054200
     20 H5           0.7990     2.9010     1.2110 h1         1 5BV       0.054200
     21 H6           0.8110    -1.0110    -1.1270 h1         1 5BV       0.067700
     22 H7          -1.0500    -2.2030     0.0350 hc         1 5BV       0.040700
     23 H8          -0.7900    -1.2540     1.4920 hc         1 5BV       0.040700
     24 H9          -1.5190     0.8090     0.2830 hc         1 5BV       0.040200
     25 H10         -1.6690    -0.1090    -1.2190 hc         1 5BV       0.040200
     26 H11         -3.4640    -1.5160    -0.1680 hc         1 5BV       0.032200
     27 H12         -3.3000    -0.6060     1.3340 hc         1 5BV       0.032200
     28 H13         -3.9850     1.4940     0.1360 hc         1 5BV       0.036200
     29 H14         -4.1470     0.5840    -1.3670 hc         1 5BV       0.036200
     30 H15         -5.9450    -0.8260    -0.3170 hc         1 5BV       0.033700
     31 H16         -5.7830     0.0830     1.1850 hc         1 5BV       0.033700
     32 H17         -6.5040     2.1840    -0.0000 hc         1 5BV       0.026700
     33 H18         -6.6680     1.2660    -1.5160 hc         1 5BV       0.026700
     34 H19         -7.7280     0.9030    -0.1360 hc         1 5BV       0.026700
     35 H20          1.6770    -1.9880     1.6340 hc         1 5BV       0.039700
     36 H21          1.3450    -3.5640    -0.9760 hc         1 5BV       0.014033
     37 H22          2.2160    -4.1570     0.4540 hc         1 5BV       0.014033
     38 H23          0.4820    -3.8290     0.5570 hc         1 5BV       0.014033
     39 O1           3.9890    -1.4380     1.0300 o          1 5BV      -0.725000
@<TRIPOS>BOND
     1     1     6 2   
     2     2     6 1   
     3     2     7 1   
     4     3    16 1   
     5     4     5 1   
     6     4    17 1   
     7     4    18 1   
     8     5     6 1   
     9     5    19 1   
    10     5    20 1   
    11     7     8 1   
    12     7    14 1   
    13     7    21 1   
    14     8     9 1   
    15     8    22 1   
    16     8    23 1   
    17     9    10 1   
    18     9    24 1   
    19     9    25 1   
    20    10    11 1   
    21    10    26 1   
    22    10    27 1   
    23    11    12 1   
    24    11    28 1   
    25    11    29 1   
    26    12    13 1   
    27    12    30 1   
    28    12    31 1   
    29    13    32 1   
    30    13    33 1   
    31    13    34 1   
    32    14    15 1   
    33    14    16 1   
    34    14    35 1   
    35    15    36 1   
    36    15    37 1   
    37    15    38 1   
    38    16    39 1   
@<TRIPOS>SUBSTRUCTURE
     1 5BV         1 TEMP              0 ****  ****    0 ROOT
