@<TRIPOS>MOLECULE
5BW
   43    46     1     0     0
SMALL
bcc


@<TRIPOS>ATOM
      1 CAW          3.9240     1.8460     0.6550 ca         1 5BW      -0.315300
      2 CAV          4.3320     3.0990     0.2530 ca         1 5BW      -0.051000
      3 CAU          4.5530     3.3580    -1.0980 ca         1 5BW      -0.302300
      4 CAT          4.3430     2.3170    -1.9820 ca         1 5BW       0.452200
      5 NAS          3.9530     1.1000    -1.6210 nb         1 5BW      -0.744000
      6 CAR          3.7470     0.8510    -0.3270 ca         1 5BW       0.685200
      7 NAO          3.3800    -0.4190    -0.0090 nh         1 5BW      -0.791300
      8 CAN          2.8610    -1.3570    -1.0070 c5         1 5BW       0.207800
      9 CAM          2.0380    -2.2820    -0.1090 c5         1 5BW       0.199500
     10 CAX          2.9180    -2.3600     1.1340 c5         1 5BW      -0.104400
     11 CAP          2.9160    -0.8420     1.3080 c5         1 5BW       0.212500
     12 CAQ          1.4140    -0.5520     1.4040 c5         1 5BW       0.177800
     13 NAL          0.9120    -1.4990     0.4080 nh         1 5BW      -0.674400
     14 CAK         -0.3310    -1.5710    -0.0270 c2         1 5BW       0.203000
     15 CAH         -1.3790    -0.7960     0.4030 ce         1 5BW      -0.424200
     16 CAG         -2.6810    -0.9890    -0.1480 c          1 5BW       0.630900
     17 OAI         -2.9110    -1.8730    -1.0050 o          1 5BW      -0.640100
     18 CAE         -3.8080    -0.1260     0.2860 ca         1 5BW      -0.281600
     19 CAF         -3.6650     0.8930     1.2360 ca         1 5BW      -0.040000
     20 CAA         -4.7270     1.6870     1.6190 ca         1 5BW      -0.203000
     21 CAB         -5.9790     1.4720     1.0430 ca         1 5BW      -0.059000
     22 CAC         -6.1590     0.4780     0.1040 ca         1 5BW      -0.203000
     23 CAD         -5.0860    -0.3310    -0.2850 ca         1 5BW       0.221100
     24 OAJ         -5.3090    -1.2780    -1.1920 oh         1 5BW      -0.527100
     25 H1           3.7470     1.6420     1.7020 ha         1 5BW       0.135000
     26 H2           4.4730     3.8760     0.9930 ha         1 5BW       0.133000
     27 H3           4.8720     4.3290    -1.4480 ha         1 5BW       0.144000
     28 H4           4.4960     2.4670    -3.0460 h4         1 5BW       0.017100
     29 H5           2.2480    -0.8610    -1.7600 h1         1 5BW       0.072200
     30 H6           3.6590    -1.8990    -1.5210 h1         1 5BW       0.072200
     31 H7           1.7110    -3.2100    -0.5720 h1         1 5BW       0.097700
     32 H8           2.4560    -2.8940     1.9640 hc         1 5BW       0.078200
     33 H9           3.9080    -2.7660     0.9360 hc         1 5BW       0.078200
     34 H10          3.5110    -0.4470     2.1270 h1         1 5BW       0.096700
     35 H11          1.0070    -0.7680     2.3960 h1         1 5BW       0.066700
     36 H12          1.1620     0.4780     1.1400 h1         1 5BW       0.066700
     37 H13         -0.5020    -2.3260    -0.7870 h4         1 5BW       0.158000
     38 H14         -1.2120    -0.0380     1.1540 ha         1 5BW       0.136000
     39 H15         -2.7010     1.0740     1.6910 ha         1 5BW       0.124000
     40 H16         -4.5880     2.4660     2.3540 ha         1 5BW       0.131000
     41 H17         -6.8200     2.0900     1.3320 ha         1 5BW       0.129000
     42 H18         -7.1300     0.3110    -0.3450 ha         1 5BW       0.146000
     43 H19         -4.4260    -1.7310    -1.3210 ho         1 5BW       0.487000
@<TRIPOS>BOND
     1     1     2 ar  
     2     1     6 ar  
     3     1    25 1   
     4     2     3 ar  
     5     2    26 1   
     6     3     4 ar  
     7     3    27 1   
     8     4     5 ar  
     9     4    28 1   
    10     5     6 ar  
    11     6     7 1   
    12     7     8 1   
    13     7    11 1   
    14     8     9 1   
    15     8    29 1   
    16     8    30 1   
    17     9    10 1   
    18     9    13 1   
    19     9    31 1   
    20    10    11 1   
    21    10    32 1   
    22    10    33 1   
    23    11    12 1   
    24    11    34 1   
    25    12    13 1   
    26    12    35 1   
    27    12    36 1   
    28    13    14 1   
    29    14    15 2   
    30    14    37 1   
    31    15    16 1   
    32    15    38 1   
    33    16    17 2   
    34    16    18 1   
    35    18    19 ar  
    36    18    23 ar  
    37    19    20 ar  
    38    19    39 1   
    39    20    21 ar  
    40    20    40 1   
    41    21    22 ar  
    42    21    41 1   
    43    22    23 ar  
    44    22    42 1   
    45    23    24 1   
    46    24    43 1   
@<TRIPOS>SUBSTRUCTURE
     1 5BW         1 TEMP              0 ****  ****    0 ROOT
