@<TRIPOS>MOLECULE
5BW
   43    46     1     0     0
SMALL
No Charge or Current Charge


@<TRIPOS>ATOM
      1 CAW          3.3800     1.9540     0.6740 ca         1 5BW      -0.232000
      2 CAV          3.5550     3.2860     0.2710 ca         1 5BW      -0.033000
      3 CAU          3.6580     3.5430    -1.1020 ca         1 5BW      -0.219000
      4 CAT          3.5840     2.4730    -2.0070 ca         1 5BW       0.386900
      5 NAS          3.4160     1.1910    -1.6180 nb         1 5BW      -0.744000
      6 CAR          3.3140     0.9410    -0.3010 ca         1 5BW       0.619900
      7 NAO          3.1440    -0.4140     0.0250 nh         1 5BW      -0.791300
      8 CAN          2.6710    -1.4560    -0.9450 c5         1 5BW       0.207800
      9 CAM          2.1750    -2.5910     0.0380 c5         1 5BW       0.199500
     10 CAX          3.2280    -2.4470     1.1620 c5         1 5BW      -0.104400
     11 CAP          2.9560    -0.9410     1.4140 c5         1 5BW       0.212500
     12 CAQ          1.4000    -0.9550     1.6810 c5         1 5BW       0.177800
     13 NAL          0.9790    -2.0870     0.7910 nh         1 5BW      -0.674400
     14 CAK         -0.2140    -1.9520     0.0830 c2         1 5BW       0.153000
     15 CAH         -1.3290    -1.4160     0.6150 ce         1 5BW      -0.474200
     16 CAG         -2.5760    -1.2290    -0.1630 c          1 5BW       0.630900
     17 OAI         -2.7910    -1.9450    -1.1350 o          1 5BW      -0.640100
     18 CAE         -3.5190    -0.0940     0.1650 ca         1 5BW      -0.281600
     19 CAF         -3.1360     0.9460     1.0470 ca         1 5BW      -0.022000
     20 CAA         -4.0260     1.9900     1.3500 ca         1 5BW      -0.185000
     21 CAB         -5.3060     2.0210     0.7790 ca         1 5BW      -0.041000
     22 CAC         -5.6910     1.0040    -0.1070 ca         1 5BW      -0.185000
     23 CAD         -4.8060    -0.0390    -0.4160 ca         1 5BW       0.221100
     24 OAJ         -5.2090    -0.9980    -1.2900 oh         1 5BW      -0.566100
     25 H1           3.2940     1.7210     1.7290 ha         1 5BW       0.117000
     26 H2           3.6080     4.0920     1.0000 ha         1 5BW       0.115000
     27 H3           3.7940     4.5570    -1.4690 ha         1 5BW       0.126000
     28 H4           3.6630     2.6480    -3.0790 h4         1 5BW       0.017100
     29 H5           1.8600    -1.0990    -1.5940 h1         1 5BW       0.072200
     30 H6           3.4920    -1.8130    -1.5810 h1         1 5BW       0.072200
     31 H7           2.0750    -3.5940    -0.4010 h1         1 5BW       0.097700
     32 H8           3.0200    -3.0770     2.0350 hc         1 5BW       0.078200
     33 H9           4.2520    -2.6520     0.8280 hc         1 5BW       0.078200
     34 H10          3.5750    -0.4780     2.1950 h1         1 5BW       0.096700
     35 H11          1.1640    -1.1640     2.7330 h1         1 5BW       0.066700
     36 H12          0.9440     0.0060     1.4040 h1         1 5BW       0.066700
     37 H13         -0.2030    -2.3360    -0.9430 h4         1 5BW       0.208000
     38 H14         -1.3240    -1.0230     1.6260 ha         1 5BW       0.186000
     39 H15         -2.1470     0.9710     1.4960 ha         1 5BW       0.106000
     40 H16         -3.7190     2.7820     2.0290 ha         1 5BW       0.113000
     41 H17         -5.9930     2.8310     1.0150 ha         1 5BW       0.111000
     42 H18         -6.6790     1.0270    -0.5610 ha         1 5BW       0.128000
     43 H19         -4.4040    -1.5630    -1.4400 ho         1 5BW       0.526000
@<TRIPOS>BOND
     1     1     2 ar  
     2     1     6 ar  
     3     1    25 1   
     4     2     3 ar  
     5     2    26 1   
     6     3     4 ar  
     7     3    27 1   
     8     4     5 ar  
     9     4    28 1   
    10     5     6 ar  
    11     6     7 1   
    12     7     8 1   
    13     7    11 1   
    14     8     9 1   
    15     8    29 1   
    16     8    30 1   
    17     9    10 1   
    18     9    13 1   
    19     9    31 1   
    20    10    11 1   
    21    10    32 1   
    22    10    33 1   
    23    11    12 1   
    24    11    34 1   
    25    12    13 1   
    26    12    35 1   
    27    12    36 1   
    28    13    14 1   
    29    14    15 2   
    30    14    37 1   
    31    15    16 1   
    32    15    38 1   
    33    16    17 2   
    34    16    18 1   
    35    18    19 ar  
    36    18    23 ar  
    37    19    20 ar  
    38    19    39 1   
    39    20    21 ar  
    40    20    40 1   
    41    21    22 ar  
    42    21    41 1   
    43    22    23 ar  
    44    22    42 1   
    45    23    24 1   
    46    24    43 1   
@<TRIPOS>SUBSTRUCTURE
     1 5BW         1 TEMP              0 ****  ****    0 ROOT
