@<TRIPOS>MOLECULE
5BX
   34    36     1     0     0
SMALL
No Charge or Current Charge


@<TRIPOS>ATOM
      1 C01          5.2340     1.0170     0.8160 c3         1 5BX       0.230100
      2 N02          3.7700     1.1180     0.9250 nu         1 5BX      -0.878400
      3 C03          2.9060     0.1410     0.5640 c2         1 5BX       0.850500
      4 N04          3.2380    -1.0640     0.3280 ne         1 5BX      -0.781100
      5 C05          2.0950    -1.7500    -0.0180 c          1 5BX       0.683500
      6 O06          2.0310    -2.9200    -0.3590 o          1 5BX      -0.529100
      7 C07          0.9560    -0.7030     0.1090 c5         1 5BX       0.021300
      8 O08          1.6220     0.5420     0.4580 os         1 5BX      -0.444600
      9 C09          0.1100    -0.5440    -1.1880 c3         1 5BX       0.027500
     10 C10          0.9430    -0.0770    -2.4090 c3         1 5BX      -0.092100
     11 C11         -1.1010     0.3330    -0.9510 cc         1 5BX      -0.145400
     12 C12         -1.3330     1.6290    -1.4110 cd         1 5BX      -0.143100
     13 N13         -2.5820     2.0920    -0.9320 na         1 5BX      -0.224700
     14 C14         -3.1040     1.0610    -0.1750 ca         1 5BX      -0.046200
     15 C15         -4.3280     1.0340     0.5100 ca         1 5BX      -0.129000
     16 C16         -4.6670    -0.1360     1.2200 ca         1 5BX      -0.091000
     17 C17         -3.7880    -1.2450     1.2300 ca         1 5BX      -0.138000
     18 C18         -2.5640    -1.1900     0.5310 ca         1 5BX      -0.065000
     19 C19         -2.2530    -0.0080    -0.1610 ca         1 5BX      -0.095800
     20 H011         5.7120     1.9430     1.1610 h1         1 5BX       0.052367
     21 H013         5.6110     0.1870     1.4280 h1         1 5BX       0.052367
     22 H012         5.5330     0.8420    -0.2270 h1         1 5BX       0.052367
     23 H021         3.3480     2.0410     0.9450 hn         1 5BX       0.512000
     24 H071         0.3180    -1.0150     0.9450 h1         1 5BX       0.104700
     25 H091        -0.2720    -1.5400    -1.4480 hc         1 5BX       0.081700
     26 H103         1.7510    -0.7850    -2.6290 hc         1 5BX       0.041700
     27 H101         0.3090    -0.0090    -3.3020 hc         1 5BX       0.041700
     28 H102         1.3900     0.9080    -2.2310 hc         1 5BX       0.041700
     29 H121        -0.7000     2.2560    -2.0330 h4         1 5BX       0.212000
     30 H131        -3.0070     2.9980    -1.1040 hn         1 5BX       0.349000
     31 H151        -4.9980     1.8900     0.4930 ha         1 5BX       0.112000
     32 H161        -5.6100    -0.1870     1.7610 ha         1 5BX       0.110000
     33 H171        -4.0580    -2.1450     1.7770 ha         1 5BX       0.112000
     34 H181        -1.8860    -2.0400     0.5290 ha         1 5BX       0.116000
@<TRIPOS>BOND
     1     1     2 1   
     2     1    20 1   
     3     1    21 1   
     4     1    22 1   
     5     2     3 1   
     6     2    23 1   
     7     3     4 2   
     8     3     8 1   
     9     4     5 1   
    10     5     6 2   
    11     5     7 1   
    12     7     8 1   
    13     7     9 1   
    14     7    24 1   
    15     9    10 1   
    16     9    11 1   
    17     9    25 1   
    18    10    26 1   
    19    10    27 1   
    20    10    28 1   
    21    11    12 2   
    22    11    19 1   
    23    12    13 1   
    24    12    29 1   
    25    13    14 1   
    26    13    30 1   
    27    14    15 ar  
    28    14    19 ar  
    29    15    16 ar  
    30    15    31 1   
    31    16    17 ar  
    32    16    32 1   
    33    17    18 ar  
    34    17    33 1   
    35    18    19 ar  
    36    18    34 1   
@<TRIPOS>SUBSTRUCTURE
     1 5BX         1 TEMP              0 ****  ****    0 ROOT
