@<TRIPOS>MOLECULE
5BX
   34    36     1     0     0
SMALL
bcc


@<TRIPOS>ATOM
      1 C01          5.1270     1.0840     0.8250 c3         1 5BX       0.230100
      2 N02          3.6870     1.2240     0.7580 nu         1 5BX      -0.823200
      3 C03          2.8950     0.2240     0.4460 c2         1 5BX       0.850500
      4 N04          3.2910    -0.9930     0.1580 ne         1 5BX      -0.781100
      5 C05          2.1560    -1.6980    -0.0970 c          1 5BX       0.683500
      6 O06          2.0770    -2.8680    -0.4100 o          1 5BX      -0.529100
      7 C07          0.9590    -0.7670     0.0630 c5         1 5BX      -0.001900
      8 O08          1.5870     0.4670     0.4230 os         1 5BX      -0.421400
      9 C09          0.1090    -0.6120    -1.2000 c3         1 5BX       0.027500
     10 C10          0.9310    -0.1580    -2.4020 c3         1 5BX      -0.092100
     11 C11         -1.0630     0.2780    -0.9240 cc         1 5BX      -0.145400
     12 C12         -1.2350     1.5790    -1.3040 cd         1 5BX      -0.093100
     13 N13         -2.4190     2.0580    -0.8200 na         1 5BX      -0.174400
     14 C14         -3.0480     1.0790    -0.1100 ca         1 5BX      -0.046200
     15 C15         -4.2680     1.0890     0.5640 ca         1 5BX      -0.147000
     16 C16         -4.6530    -0.0750     1.2030 ca         1 5BX      -0.109000
     17 C17         -3.8480    -1.2250     1.1730 ca         1 5BX      -0.156000
     18 C18         -2.6390    -1.2310     0.5030 ca         1 5BX      -0.083000
     19 C19         -2.2210    -0.0660    -0.1510 ca         1 5BX      -0.095800
     20 H011         5.5440     2.0420     1.1170 h1         1 5BX       0.052367
     21 H013         5.4170     0.3380     1.5630 h1         1 5BX       0.052367
     22 H012         5.5430     0.8020    -0.1410 h1         1 5BX       0.052367
     23 H021         3.2730     2.1190     0.9680 hn         1 5BX       0.456800
     24 H071         0.3380    -1.0910     0.9030 h1         1 5BX       0.104700
     25 H091        -0.2650    -1.6210    -1.4080 hc         1 5BX       0.081700
     26 H103         1.7450    -0.8510    -2.6170 hc         1 5BX       0.041700
     27 H101         0.3020    -0.1130    -3.2890 hc         1 5BX       0.041700
     28 H102         1.3640     0.8320    -2.2560 hc         1 5BX       0.041700
     29 H121        -0.5970     2.2150    -1.8970 h4         1 5BX       0.162000
     30 H131        -2.7690     2.9870    -0.9800 hn         1 5BX       0.298700
     31 H151        -4.8920     1.9730     0.5870 ha         1 5BX       0.130000
     32 H161        -5.5940    -0.1000     1.7370 ha         1 5BX       0.128000
     33 H171        -4.1820    -2.1180     1.6840 ha         1 5BX       0.130000
     34 H181        -2.0310    -2.1280     0.4830 ha         1 5BX       0.134000
@<TRIPOS>BOND
     1     1     2 1   
     2     1    20 1   
     3     1    21 1   
     4     1    22 1   
     5     2     3 1   
     6     2    23 1   
     7     3     4 2   
     8     3     8 1   
     9     4     5 1   
    10     5     6 2   
    11     5     7 1   
    12     7     8 1   
    13     7     9 1   
    14     7    24 1   
    15     9    10 1   
    16     9    11 1   
    17     9    25 1   
    18    10    26 1   
    19    10    27 1   
    20    10    28 1   
    21    11    12 2   
    22    11    19 1   
    23    12    13 1   
    24    12    29 1   
    25    13    14 1   
    26    13    30 1   
    27    14    15 ar  
    28    14    19 ar  
    29    15    16 ar  
    30    15    31 1   
    31    16    17 ar  
    32    16    32 1   
    33    17    18 ar  
    34    17    33 1   
    35    18    19 ar  
    36    18    34 1   
@<TRIPOS>SUBSTRUCTURE
     1 5BX         1 TEMP              0 ****  ****    0 ROOT
