@<TRIPOS>MOLECULE
5C0
   49    53     1     0     0
SMALL
abcg2


@<TRIPOS>ATOM
      1 C4         -15.0270    38.4960     8.7000 ca         1 5C0      -0.245300
      2 C5         -14.7050    37.3630     7.7570 c6         1 5C0      -0.034100
      3 C6         -13.9820    36.2230     8.4890 c5         1 5C0       0.216500
      4 N1         -14.8120    39.5170    10.8650 nb         1 5C0      -0.212000
      5 C7         -14.8870    35.5110     9.5210 c5         1 5C0      -0.084400
      6 C8         -14.5750    36.1890    10.8800 c5         1 5C0      -0.075400
      7 N2         -16.1080    40.5890     9.1820 nb         1 5C0      -0.245000
      8 C9         -13.6830    37.3780    10.4830 c5         1 5C0       0.169200
      9 C10        -14.5390    38.5280     9.9910 ca         1 5C0       0.116300
     10 C11        -15.5880    40.4880    10.4010 ca         1 5C0       0.160900
     11 N3         -12.9550    36.8340     9.3380 nh         1 5C0      -0.662400
     12 C13        -11.0730    36.8290     7.8300 ce         1 5C0      -0.470200
     13 C14         -9.7060    37.1960     7.6370 c          1 5C0       0.625900
     14 C15         -9.0170    36.8610     6.3650 ca         1 5C0      -0.273600
     15 O1          -9.0520    37.8110     8.5300 o          1 5C0      -0.641100
     16 C20         -7.6630    37.2430     6.1860 ca         1 5C0       0.217100
     17 O           -6.9860    37.9060     7.1400 oh         1 5C0      -0.572100
     18 C19         -6.9960    36.9340     4.9960 ca         1 5C0      -0.181000
     19 C18         -7.6490    36.2540     3.9860 ca         1 5C0      -0.041000
     20 C17         -8.9830    35.8680     4.1410 ca         1 5C0      -0.184000
     21 C16         -9.6460    36.1720     5.3160 ca         1 5C0      -0.025000
     22 C3         -15.8290    39.6000     8.3130 ca         1 5C0       0.392900
     23 N          -16.3310    39.6880     7.0620 nu         1 5C0      -0.909100
     24 C2         -17.1970    40.7400     6.6200 cx         1 5C0       0.175500
     25 C1         -17.1810    41.0710     5.1610 cx         1 5C0      -0.132900
     26 C          -16.6020    42.0410     6.1590 cx         1 5C0      -0.132900
     27 H1         -14.0810    37.7320     6.9360 hc         1 5C0       0.054700
     28 H2         -15.6180    36.9650     7.3040 hc         1 5C0       0.054700
     29 H3         -13.5340    35.5330     7.7800 h1         1 5C0       0.081700
     30 H4         -15.9350    35.6130     9.2420 hc         1 5C0       0.057200
     31 H5         -14.6530    34.4490     9.5580 hc         1 5C0       0.057200
     32 H6         -15.4700    36.5170    11.4050 hc         1 5C0       0.065700
     33 H7         -14.0170    35.5200    11.5350 hc         1 5C0       0.065700
     34 H8         -13.0050    37.7140    11.2640 h1         1 5C0       0.104700
     35 H9         -15.8240    41.2930    11.0900 h5         1 5C0       0.050100
     36 H10        -11.1620    37.6940     9.7610 h4         1 5C0       0.214000
     37 H11        -11.6070    36.3130     7.0500 ha         1 5C0       0.182000
     38 H12         -7.6500    38.0120     7.8920 ho         1 5C0       0.527000
     39 H13         -5.9630    37.2400     4.8910 ha         1 5C0       0.130000
     40 H14         -7.1200    36.0200     3.0700 ha         1 5C0       0.112000
     41 H15         -9.4950    35.3350     3.3510 ha         1 5C0       0.113000
     42 H16        -10.6770    35.8650     5.4210 ha         1 5C0       0.105000
     43 H17        -16.1910    38.9100     6.4400 hn         1 5C0       0.498000
     44 H18        -18.1480    40.7920     7.1380 h1         1 5C0       0.093700
     45 H19        -18.1250    41.3110     4.6910 hc         1 5C0       0.079950
     46 H20        -16.4870    40.5210     4.5380 hc         1 5C0       0.079950
     47 H21        -15.5240    42.1260     6.2040 hc         1 5C0       0.079950
     48 H22        -17.1480    42.9480     6.3780 hc         1 5C0       0.079950
     49 C12        -11.7100    37.1460     9.0030 c2         1 5C0       0.160000
@<TRIPOS>BOND
     1     1     2 1   
     2     1     9 ar  
     3     1    22 ar  
     4     2     3 1   
     5     2    27 1   
     6     2    28 1   
     7     3     5 1   
     8     3    11 1   
     9     3    29 1   
    10     4     9 ar  
    11     4    10 ar  
    12     5     6 1   
    13     5    30 1   
    14     5    31 1   
    15     6     8 1   
    16     6    32 1   
    17     6    33 1   
    18     7    10 ar  
    19     7    22 ar  
    20     8     9 1   
    21     8    11 1   
    22     8    34 1   
    23    10    35 1   
    24    11    49 1   
    25    12    13 1   
    26    12    37 1   
    27    12    49 2   
    28    13    14 1   
    29    13    15 2   
    30    14    16 ar  
    31    14    21 ar  
    32    16    17 1   
    33    16    18 ar  
    34    17    38 1   
    35    18    19 ar  
    36    18    39 1   
    37    19    20 ar  
    38    19    40 1   
    39    20    21 ar  
    40    20    41 1   
    41    21    42 1   
    42    22    23 1   
    43    23    24 1   
    44    23    43 1   
    45    24    25 1   
    46    24    26 1   
    47    24    44 1   
    48    25    26 1   
    49    25    45 1   
    50    25    46 1   
    51    26    47 1   
    52    26    48 1   
    53    36    49 1   
@<TRIPOS>SUBSTRUCTURE
     1 5C0         1 TEMP              0 ****  ****    0 ROOT
