@<TRIPOS>MOLECULE
5C0
   49    53     1     0     0
SMALL
No Charge or Current Charge


@<TRIPOS>ATOM
      1 C4         -14.8860    38.3650     8.7870 ca         1 5C0      -0.245300
      2 C5         -14.5180    37.1730     7.8740 c6         1 5C0      -0.034100
      3 C6         -13.9000    35.9800     8.6670 c5         1 5C0       0.216500
      4 N1         -14.7980    39.3920    10.9590 nb         1 5C0      -0.212000
      5 C7         -14.9270    35.2540     9.5900 c5         1 5C0      -0.084400
      6 C8         -14.8830    36.0480    10.9450 c5         1 5C0      -0.075400
      7 N2         -15.8460    40.5430     9.1220 nb         1 5C0      -0.245000
      8 C9         -13.7740    37.1230    10.7290 c5         1 5C0       0.169200
      9 C10        -14.5080    38.3480    10.1540 ca         1 5C0       0.116300
     10 C11        -15.4510    40.4330    10.4050 ca         1 5C0       0.160900
     11 N3         -12.9560    36.4200     9.7160 nh         1 5C0      -0.662400
     12 C13        -10.9820    36.6030     8.3510 ce         1 5C0      -0.470200
     13 C14         -9.8220    37.3650     7.8320 c          1 5C0       0.625900
     14 C15         -9.3390    37.1460     6.4160 ca         1 5C0      -0.273600
     15 O1          -9.3190    38.2420     8.5250 o          1 5C0      -0.641100
     16 C20         -8.1130    37.6990     5.9830 ca         1 5C0       0.217100
     17 O           -7.3570    38.4480     6.8290 oh         1 5C0      -0.572100
     18 C19         -7.6510    37.4920     4.6750 ca         1 5C0      -0.181000
     19 C18         -8.4100    36.7370     3.7680 ca         1 5C0      -0.041000
     20 C17         -9.6370    36.1960     4.1770 ca         1 5C0      -0.184000
     21 C16        -10.1030    36.3980     5.4870 ca         1 5C0      -0.025000
     22 C3         -15.5590    39.5070     8.3130 ca         1 5C0       0.392900
     23 N          -15.9480    39.6110     6.9800 nu         1 5C0      -0.909100
     24 C2         -16.6200    40.7210     6.3600 cx         1 5C0       0.175500
     25 C1         -16.4240    40.9050     4.8760 cx         1 5C0      -0.132900
     26 C          -15.7620    41.8510     5.8480 cx         1 5C0      -0.132900
     27 H1         -13.7920    37.5090     7.1220 hc         1 5C0       0.054700
     28 H2         -15.3990    36.8220     7.3200 hc         1 5C0       0.054700
     29 H3         -13.4530    35.2710     7.9550 h1         1 5C0       0.081700
     30 H4         -15.9320    35.2280     9.1530 hc         1 5C0       0.057200
     31 H5         -14.6280    34.2120     9.7490 hc         1 5C0       0.057200
     32 H6         -15.8530    36.4860    11.2100 hc         1 5C0       0.065700
     33 H7         -14.6110    35.3770    11.7680 hc         1 5C0       0.065700
     34 H8         -13.2290    37.3630    11.6550 h1         1 5C0       0.104700
     35 H9         -15.6820    41.2700    11.0610 h5         1 5C0       0.050100
     36 H10        -11.6540    38.0900     9.7240 h4         1 5C0       0.214000
     37 H11        -11.1800    35.6400     7.8920 ha         1 5C0       0.182000
     38 H12         -7.9150    38.5510     7.6470 ho         1 5C0       0.527000
     39 H13         -6.7030    37.9210     4.3610 ha         1 5C0       0.130000
     40 H14         -8.0520    36.5790     2.7530 ha         1 5C0       0.112000
     41 H15        -10.2340    35.6200     3.4740 ha         1 5C0       0.113000
     42 H16        -11.0680    35.9790     5.7570 ha         1 5C0       0.105000
     43 H17        -15.7090    38.7940     6.4200 hn         1 5C0       0.498000
     44 H18        -17.5980    40.9730     6.7790 h1         1 5C0       0.093700
     45 H19        -17.2680    41.2780     4.3010 hc         1 5C0       0.079950
     46 H20        -15.7900    40.1980     4.3470 hc         1 5C0       0.079950
     47 H21        -14.6860    41.7740     5.9810 hc         1 5C0       0.079950
     48 H22        -16.1610    42.8580     5.9290 hc         1 5C0       0.079950
     49 C12        -11.8270    37.1070     9.2690 c2         1 5C0       0.160000
@<TRIPOS>BOND
     1     1     2 1   
     2     1     9 ar  
     3     1    22 ar  
     4     2     3 1   
     5     2    27 1   
     6     2    28 1   
     7     3     5 1   
     8     3    11 1   
     9     3    29 1   
    10     4     9 ar  
    11     4    10 ar  
    12     5     6 1   
    13     5    30 1   
    14     5    31 1   
    15     6     8 1   
    16     6    32 1   
    17     6    33 1   
    18     7    10 ar  
    19     7    22 ar  
    20     8     9 1   
    21     8    11 1   
    22     8    34 1   
    23    10    35 1   
    24    11    49 1   
    25    12    13 1   
    26    12    37 1   
    27    12    49 2   
    28    13    14 1   
    29    13    15 2   
    30    14    16 ar  
    31    14    21 ar  
    32    16    17 1   
    33    16    18 ar  
    34    17    38 1   
    35    18    19 ar  
    36    18    39 1   
    37    19    20 ar  
    38    19    40 1   
    39    20    21 ar  
    40    20    41 1   
    41    21    42 1   
    42    22    23 1   
    43    23    24 1   
    44    23    43 1   
    45    24    25 1   
    46    24    26 1   
    47    24    44 1   
    48    25    26 1   
    49    25    45 1   
    50    25    46 1   
    51    26    47 1   
    52    26    48 1   
    53    36    49 1   
@<TRIPOS>SUBSTRUCTURE
     1 5C0         1 TEMP              0 ****  ****    0 ROOT
