@<TRIPOS>MOLECULE
5C2
   43    46     1     0     0
SMALL
No Charge or Current Charge


@<TRIPOS>ATOM
      1 N3           0.3630     2.0530    -0.1400 ns         1 5C2      -0.496900
      2 C4           1.5750     2.8830    -0.1730 c3         1 5C2       0.087700
      3 C5           2.8500     2.0760    -0.2830 cc         1 5C2       0.219300
      4 C6           4.1380     2.5270    -0.3370 cd         1 5C2       0.111900
      5 C8           4.1450     0.4120    -0.4350 cd         1 5C2       0.541500
      6 C10          5.9810    -1.2160    -0.6150 cc         1 5C2      -0.086000
      7 C15         -2.0310     1.5370    -0.0240 ca         1 5C2      -0.255600
      8 C17         -4.3430     0.9660     0.0840 ca         1 5C2      -0.285900
      9 C22         -5.9970    -3.0800     1.2800 c3         1 5C2      -0.104600
     10 C24         -4.0310    -0.3570     0.0060 ca         1 5C2       0.385500
     11 C26         -1.7800     0.1470    -0.1010 ca         1 5C2       0.400900
     12 C23         -6.1420    -2.9650    -1.2720 c3         1 5C2      -0.104600
     13 N20         -5.2480    -1.0310     0.0460 na         1 5C2      -0.025100
     14 N19         -6.3420    -0.1600     0.1490 nc         1 5C2      -0.509100
     15 C18         -5.7790     1.0550     0.1710 cd         1 5C2       0.370800
     16 C16         -3.3700     1.9680     0.0720 ca         1 5C2       0.062000
     17 N25         -2.7590    -0.7930    -0.0870 nb         1 5C2      -0.684000
     18 C2          -0.9190     2.5400    -0.0440 c          1 5C2       0.621700
     19 O1          -1.1340     3.7410     0.0230 o          1 5C2      -0.610100
     20 N14          2.8550     0.7080    -0.3470 nc         1 5C2      -0.697000
     21 O7           5.0000     1.4810    -0.4350 os         1 5C2      -0.242000
     22 C9           4.6430    -0.9260    -0.5250 cd         1 5C2      -0.294500
     23 S13          3.6260    -2.3720    -0.5330 ss         1 5C2       0.300000
     24 C12          5.0870    -3.3750    -0.6630 cd         1 5C2      -0.246000
     25 C11          6.2270    -2.6090    -0.6940 cc         1 5C2      -0.139000
     26 H1           0.4920     1.0500    -0.1930 hn         1 5C2       0.331500
     27 H2           1.5130     3.5680    -1.0290 h1         1 5C2       0.064700
     28 H3           1.6160     3.4880     0.7430 h1         1 5C2       0.064700
     29 H4           4.5470     3.5280    -0.3140 h4         1 5C2       0.071100
     30 H5           6.7830    -0.4800    -0.6280 ha         1 5C2       0.144000
     31 H6          -4.3620    -2.9190    -0.0890 h1         1 5C2       0.079700
     32 H7          -6.0130    -4.1760     1.2460 hc         1 5C2       0.048867
     33 H8          -5.4120    -2.7750     2.1560 hc         1 5C2       0.048867
     34 H9          -7.0260    -2.7250     1.4120 hc         1 5C2       0.048867
     35 H10         -0.7670    -0.2440    -0.1770 h4         1 5C2       0.024100
     36 H11         -7.1780    -2.6050    -1.2540 hc         1 5C2       0.048867
     37 H12         -5.6590    -2.5800    -2.1780 hc         1 5C2       0.048867
     38 H13         -6.1600    -4.0600    -1.3350 hc         1 5C2       0.048867
     39 H14         -6.4150     1.9290     0.2470 h4         1 5C2       0.055800
     40 H15         -3.6390     3.0220     0.1350 ha         1 5C2       0.146000
     41 H16          5.0000    -4.4540    -0.7080 h4         1 5C2       0.154000
     42 H17          7.2320    -3.0160    -0.7700 ha         1 5C2       0.139000
     43 C21         -5.3760    -2.5050    -0.0120 c3         1 5C2       0.112300
@<TRIPOS>BOND
     1     1     2 1   
     2     1    18 1   
     3     1    26 1   
     4     2     3 1   
     5     2    27 1   
     6     2    28 1   
     7     3     4 2   
     8     3    20 1   
     9     4    21 1   
    10     4    29 1   
    11     5    20 2   
    12     5    21 1   
    13     5    22 1   
    14     6    22 2   
    15     6    25 1   
    16     6    30 1   
    17     7    11 ar  
    18     7    16 ar  
    19     7    18 1   
    20     8    10 ar  
    21     8    15 1   
    22     8    16 ar  
    23     9    32 1   
    24     9    33 1   
    25     9    34 1   
    26     9    43 1   
    27    10    13 1   
    28    10    17 ar  
    29    11    17 ar  
    30    11    35 1   
    31    12    36 1   
    32    12    37 1   
    33    12    38 1   
    34    12    43 1   
    35    13    14 1   
    36    13    43 1   
    37    14    15 2   
    38    15    39 1   
    39    16    40 1   
    40    18    19 2   
    41    22    23 1   
    42    23    24 1   
    43    24    25 2   
    44    24    41 1   
    45    25    42 1   
    46    31    43 1   
@<TRIPOS>SUBSTRUCTURE
     1 5C2         1 TEMP              0 ****  ****    0 ROOT
