@<TRIPOS>MOLECULE
5C2
   43    46     1     0     0
SMALL
bcc


@<TRIPOS>ATOM
      1 N3           0.3410     1.9390    -0.0230 ns         1 5C2      -0.563900
      2 C4           1.5250     2.7730    -0.0080 c3         1 5C2       0.087700
      3 C5           2.7040     1.9760    -0.4380 cc         1 5C2       0.219300
      4 C6           3.6370     2.2500    -1.3730 cd         1 5C2       0.156300
      5 C8           4.0750     0.3620    -0.4630 cd         1 5C2       0.585900
      6 C10          5.9410    -1.3020    -0.8620 cc         1 5C2      -0.104000
      7 C15         -2.0220     1.4790     0.0040 ca         1 5C2      -0.320900
      8 C17         -4.2790     0.9510     0.4960 ca         1 5C2      -0.351200
      9 C22         -5.7830    -3.2790     0.7900 c3         1 5C2      -0.104600
     10 C24         -4.0100    -0.3190    -0.0470 ca         1 5C2       0.450800
     11 C26         -1.8900     0.1750    -0.5240 ca         1 5C2       0.466200
     12 C23         -6.4240    -2.4300    -1.5060 c3         1 5C2      -0.104600
     13 N20         -5.1500    -1.0330     0.0480 na         1 5C2       0.004200
     14 N19         -6.1250    -0.3070     0.6100 nc         1 5C2      -0.509100
     15 C18         -5.6400     0.8740     0.8870 cd         1 5C2       0.370800
     16 C16         -3.2480     1.8820     0.5080 ca         1 5C2       0.044000
     17 N25         -2.8520    -0.7220    -0.5610 nb         1 5C2      -0.684000
     18 C2          -0.8990     2.4580    -0.0010 c          1 5C2       0.688700
     19 O1          -1.1090     3.6640     0.0080 o          1 5C2      -0.610100
     20 N14          3.0010     0.7580     0.1360 nc         1 5C2      -0.697000
     21 O7           4.5210     1.2200    -1.3850 os         1 5C2      -0.330800
     22 C9           4.8010    -0.8610    -0.2460 cd         1 5C2      -0.149600
     23 S13          4.2350    -1.9910     0.9230 ss         1 5C2       0.010200
     24 C12          5.5290    -3.0570     0.5850 cd         1 5C2      -0.119100
     25 C11          6.3570    -2.5670    -0.3800 cc         1 5C2      -0.157000
     26 H1           0.4740     0.9640     0.1940 hn         1 5C2       0.331500
     27 H2           1.3880     3.6180    -0.6810 h1         1 5C2       0.064700
     28 H3           1.6980     3.1810     0.9930 h1         1 5C2       0.064700
     29 H4           3.8040     3.0650    -2.0560 h4         1 5C2       0.071100
     30 H5           6.4640    -0.7460    -1.6270 ha         1 5C2       0.162000
     31 H6          -4.4310    -2.7410    -0.7810 h1         1 5C2       0.079700
     32 H7          -5.8920    -4.3110     0.4570 hc         1 5C2       0.048867
     33 H8          -5.0240    -3.2560     1.5720 hc         1 5C2       0.048867
     34 H9          -6.7330    -2.9630     1.2200 hc         1 5C2       0.048867
     35 H10         -0.9490    -0.1370    -0.9630 h4         1 5C2       0.024100
     36 H11         -7.3940    -2.0800    -1.1550 hc         1 5C2       0.048867
     37 H12         -6.1140    -1.8090    -2.3470 hc         1 5C2       0.048867
     38 H13         -6.5450    -3.4500    -1.8700 hc         1 5C2       0.048867
     39 H14         -6.2550     1.6300     1.3500 h4         1 5C2       0.055800
     40 H15         -3.3870     2.8810     0.9030 ha         1 5C2       0.164000
     41 H16          5.6100    -3.9930     1.1160 h4         1 5C2       0.172000
     42 H17          7.2320    -3.0890    -0.7380 ha         1 5C2       0.157000
     43 C21         -5.3910    -2.4010    -0.3890 c3         1 5C2       0.083000
@<TRIPOS>BOND
     1     1     2 1   
     2     1    18 1   
     3     1    26 1   
     4     2     3 1   
     5     2    27 1   
     6     2    28 1   
     7     3     4 2   
     8     3    20 1   
     9     4    21 1   
    10     4    29 1   
    11     5    20 2   
    12     5    21 1   
    13     5    22 1   
    14     6    22 2   
    15     6    25 1   
    16     6    30 1   
    17     7    11 ar  
    18     7    16 ar  
    19     7    18 1   
    20     8    10 ar  
    21     8    15 1   
    22     8    16 ar  
    23     9    32 1   
    24     9    33 1   
    25     9    34 1   
    26     9    43 1   
    27    10    13 1   
    28    10    17 ar  
    29    11    17 ar  
    30    11    35 1   
    31    12    36 1   
    32    12    37 1   
    33    12    38 1   
    34    12    43 1   
    35    13    14 1   
    36    13    43 1   
    37    14    15 2   
    38    15    39 1   
    39    16    40 1   
    40    18    19 2   
    41    22    23 1   
    42    23    24 1   
    43    24    25 2   
    44    24    41 1   
    45    25    42 1   
    46    31    43 1   
@<TRIPOS>SUBSTRUCTURE
     1 5C2         1 TEMP              0 ****  ****    0 ROOT
