@<TRIPOS>MOLECULE
5C3
   40    41     1     0     0
SMALL
No Charge or Current Charge


@<TRIPOS>ATOM
      1 C01          4.0790     2.0850     1.1390 ca         1 5C3      -0.132500
      2 C02          3.4610     0.8370     1.3270 ca         1 5C3      -0.003500
      3 C03          3.1150     0.0450     0.2110 ca         1 5C3      -0.290500
      4 C04          3.3900     0.5160    -1.0920 ca         1 5C3      -0.003500
      5 C05          4.0090     1.7650    -1.2710 ca         1 5C3      -0.132500
      6 C06          4.3550     2.5500    -0.1580 ca         1 5C3      -0.053000
      7 O08          0.2390    -0.3040    -1.4190 o          1 5C3      -0.554100
      8 N09         -6.9390     0.2040    -0.2920 n8         1 5C3      -0.996200
      9 C10         -5.8650     0.8010     0.5270 c3         1 5C3       0.151800
     10 S11          2.3120    -1.5510     0.4540 sy         1 5C3       1.179300
     11 NP2          0.6870    -1.1920     0.6190 ns         1 5C3      -0.588300
     12 O13          2.4410    -2.3410    -0.7770 o          1 5C3      -0.529000
     13 O14          2.7130    -2.0910     1.7570 o          1 5C3      -0.529000
     14 C15         -4.4280     0.5510    -0.0230 c6         1 5C3      -0.062700
     15 C16         -3.3780     1.3420     0.8090 c6         1 5C3      -0.069900
     16 C17         -1.9410     1.1430     0.2640 c6         1 5C3      -0.066900
     17 C18         -1.5820    -0.3630     0.1700 c6         1 5C3      -0.141700
     18 C19         -2.6320    -1.1960    -0.6130 c6         1 5C3      -0.066900
     19 C11         -0.1330    -0.6140    -0.2980 c          1 5C3       0.634100
     20 C20         -4.0590    -0.9630    -0.0570 c6         1 5C3      -0.069900
     21 H01          4.3450     2.6930     2.0000 ha         1 5C3       0.120000
     22 H02          3.2520     0.4910     2.3390 ha         1 5C3       0.138000
     23 H06          4.8330     3.5160    -0.3010 ha         1 5C3       0.116000
     24 H04          3.1220    -0.0770    -1.9650 ha         1 5C3       0.138000
     25 H05          4.2180     2.1260    -2.2760 ha         1 5C3       0.120000
     26 H091        -7.8490     0.4830     0.0940 hn         1 5C3       0.393000
     27 H092        -6.9290     0.6390    -1.2220 hn         1 5C3       0.393000
     28 H101        -6.0410     1.8850     0.5780 h1         1 5C3       0.027200
     29 H102        -5.9360     0.3960     1.5460 h1         1 5C3       0.027200
     30 H15         -4.4150     0.9400    -1.0510 hc         1 5C3       0.048700
     31 HP2          0.3470    -1.4090     1.5390 hn         1 5C3       0.346500
     32 H161        -3.6230     2.4130     0.8030 hc         1 5C3       0.046200
     33 H162        -3.4180     1.0220     1.8600 hc         1 5C3       0.046200
     34 H201        -4.1330    -1.3860     0.9550 hc         1 5C3       0.046200
     35 H202        -4.7790    -1.5170    -0.6750 hc         1 5C3       0.046200
     36 H171        -1.8580     1.6070    -0.7300 hc         1 5C3       0.053450
     37 H172        -1.2220     1.6640     0.9120 hc         1 5C3       0.053450
     38 H18         -1.6220    -0.7380     1.2020 hc         1 5C3       0.057700
     39 H191        -2.6030    -0.9210    -1.6770 hc         1 5C3       0.053450
     40 H192        -2.3820    -2.2650    -0.5600 hc         1 5C3       0.053450
@<TRIPOS>BOND
     1     1     2 ar  
     2     1     6 ar  
     3     1    21 1   
     4     2     3 ar  
     5     2    22 1   
     6     3     4 ar  
     7     3    10 1   
     8     4     5 ar  
     9     4    24 1   
    10     5     6 ar  
    11     5    25 1   
    12     6    23 1   
    13     7    19 2   
    14     8     9 1   
    15     8    26 1   
    16     8    27 1   
    17     9    14 1   
    18     9    28 1   
    19     9    29 1   
    20    10    11 1   
    21    10    12 2   
    22    10    13 2   
    23    11    19 1   
    24    11    31 1   
    25    14    15 1   
    26    14    20 1   
    27    14    30 1   
    28    15    16 1   
    29    15    32 1   
    30    15    33 1   
    31    16    17 1   
    32    16    36 1   
    33    16    37 1   
    34    17    18 1   
    35    17    19 1   
    36    17    38 1   
    37    18    20 1   
    38    18    39 1   
    39    18    40 1   
    40    20    34 1   
    41    20    35 1   
@<TRIPOS>SUBSTRUCTURE
     1 5C3         1 TEMP              0 ****  ****    0 ROOT
