@<TRIPOS>MOLECULE
5C3
   40    41     1     0     0
SMALL
bcc


@<TRIPOS>ATOM
      1 C01          4.1570     1.7200     1.3010 ca         1 5C3      -0.150500
      2 C02          3.4470     0.5310     1.2940 ca         1 5C3      -0.021500
      3 C03          3.0680    -0.0150     0.0730 ca         1 5C3      -0.290500
      4 C04          3.3880     0.5940    -1.1310 ca         1 5C3      -0.021500
      5 C05          4.1040     1.7820    -1.1080 ca         1 5C3      -0.150500
      6 C06          4.4850     2.3440     0.1030 ca         1 5C3      -0.071000
      7 O08          0.2120     0.2180    -1.2730 o          1 5C3      -0.554100
      8 N09         -6.8200    -0.2100    -0.1740 n8         1 5C3      -0.885800
      9 C10         -5.8790     0.7230     0.4280 c3         1 5C3       0.151800
     10 S11          2.1660    -1.5330     0.0760 sy         1 5C3       1.320900
     11 NP2          0.6150    -1.0810     0.5230 ns         1 5C3      -0.655300
     12 O13          2.1410    -2.0730    -1.2670 o          1 5C3      -0.599800
     13 O14          2.6210    -2.3580     1.1800 o          1 5C3      -0.599800
     14 C15         -4.4570     0.4980    -0.0700 c6         1 5C3      -0.062700
     15 C16         -3.5110     1.5490     0.5060 c6         1 5C3      -0.069900
     16 C17         -2.0820     1.3630     0.0120 c6         1 5C3      -0.066900
     17 C18         -1.5670    -0.0380     0.3320 c6         1 5C3      -0.141700
     18 C19         -2.5120    -1.1110    -0.2360 c6         1 5C3      -0.066900
     19 C11         -0.1840    -0.2540    -0.2310 c          1 5C3       0.701100
     20 C20         -3.9390    -0.9010     0.2550 c6         1 5C3      -0.069900
     21 H01          4.4550     2.1590     2.2440 ha         1 5C3       0.138000
     22 H02          3.1980     0.0440     2.2270 ha         1 5C3       0.156000
     23 H06          5.0420     3.2720     0.1140 ha         1 5C3       0.134000
     24 H04          3.0900     0.1580    -2.0740 ha         1 5C3       0.156000
     25 H05          4.3600     2.2690    -2.0390 ha         1 5C3       0.138000
     26 H091        -7.7470    -0.0360     0.1940 hn         1 5C3       0.337800
     27 H092        -6.8830    -0.0220    -1.1670 hn         1 5C3       0.337800
     28 H101        -6.1440     1.7770     0.2540 h1         1 5C3       0.027200
     29 H102        -5.9010     0.5790     1.5130 h1         1 5C3       0.027200
     30 H15         -4.4580     0.6160    -1.1640 hc         1 5C3       0.048700
     31 HP2          0.3040    -1.4150     1.4280 hn         1 5C3       0.346500
     32 H161        -3.8560     2.5510     0.2390 hc         1 5C3       0.046200
     33 H162        -3.5350     1.4940     1.6010 hc         1 5C3       0.046200
     34 H201        -3.9760    -1.0500     1.3410 hc         1 5C3       0.046200
     35 H202        -4.5910    -1.6570    -0.1860 hc         1 5C3       0.046200
     36 H171        -2.0500     1.5230    -1.0690 hc         1 5C3       0.053450
     37 H172        -1.4290     2.1140     0.4630 hc         1 5C3       0.053450
     38 H18         -1.5330    -0.1630     1.4210 hc         1 5C3       0.057700
     39 H191        -2.4870    -1.0660    -1.3300 hc         1 5C3       0.053450
     40 H192        -2.1630    -2.1070     0.0470 hc         1 5C3       0.053450
@<TRIPOS>BOND
     1     1     2 ar  
     2     1     6 ar  
     3     1    21 1   
     4     2     3 ar  
     5     2    22 1   
     6     3     4 ar  
     7     3    10 1   
     8     4     5 ar  
     9     4    24 1   
    10     5     6 ar  
    11     5    25 1   
    12     6    23 1   
    13     7    19 2   
    14     8     9 1   
    15     8    26 1   
    16     8    27 1   
    17     9    14 1   
    18     9    28 1   
    19     9    29 1   
    20    10    11 1   
    21    10    12 2   
    22    10    13 2   
    23    11    19 1   
    24    11    31 1   
    25    14    15 1   
    26    14    20 1   
    27    14    30 1   
    28    15    16 1   
    29    15    32 1   
    30    15    33 1   
    31    16    17 1   
    32    16    36 1   
    33    16    37 1   
    34    17    18 1   
    35    17    19 1   
    36    17    38 1   
    37    18    20 1   
    38    18    39 1   
    39    18    40 1   
    40    20    34 1   
    41    20    35 1   
@<TRIPOS>SUBSTRUCTURE
     1 5C3         1 TEMP              0 ****  ****    0 ROOT
