@<TRIPOS>MOLECULE
5C4
   53    56     1     0     0
SMALL
No Charge or Current Charge


@<TRIPOS>ATOM
      1 O01          7.2470     2.3240     0.5110 oh         1 5C4      -0.533600
      2 C02          5.9900     1.8240     0.3510 ca         1 5C4       0.140600
      3 C03          5.3400     1.1850     1.4200 ca         1 5C4      -0.179500
      4 C04          4.0420     0.6710     1.2460 ca         1 5C4      -0.056250
      5 C05          3.3880     0.8000     0.0060 ca         1 5C4      -0.089800
      6 C06          2.0190     0.2380    -0.1730 ce         1 5C4       0.008600
      7 C07          2.0070    -1.2550    -0.0900 ca         1 5C4      -0.089800
      8 C08          1.0880    -1.9180     0.7500 ca         1 5C4      -0.056250
      9 C09          1.0840    -3.3220     0.8290 ca         1 5C4      -0.179500
     10 C10          1.9980    -4.0720     0.0770 ca         1 5C4       0.140600
     11 O11          1.9860    -5.4310     0.1620 oh         1 5C4      -0.533600
     12 C12          2.9230    -3.4220    -0.7550 ca         1 5C4      -0.179500
     13 C13          2.9290    -2.0170    -0.8360 ca         1 5C4      -0.056250
     14 C14          0.8940     1.0090    -0.3210 cf         1 5C4      -0.046400
     15 C15         -0.4750     0.5010    -0.5700 ca         1 5C4      -0.018800
     16 C16         -0.6990    -0.4910    -1.5460 ca         1 5C4      -0.127000
     17 C17         -1.9920    -0.9870    -1.7750 ca         1 5C4      -0.079000
     18 C18         -3.0760    -0.4860    -1.0360 ca         1 5C4      -0.159000
     19 C19         -2.8730     0.5170    -0.0730 ca         1 5C4       0.319000
     20 N20         -3.9270     1.0220     0.6930 nu         1 5C4      -1.000000
     21 C21         -5.3060     1.1080     0.4930 ca         1 5C4       0.324000
     22 C22         -6.1480     1.2220     1.6110 ca         1 5C4      -0.170500
     23 C23         -7.5410     1.3270     1.4470 ca         1 5C4      -0.075000
     24 C24         -8.0950     1.3290     0.1560 ca         1 5C4      -0.149000
     25 C25         -7.2580     1.2340    -0.9680 ca         1 5C4      -0.075000
     26 C26         -5.8660     1.1290    -0.7980 ca         1 5C4      -0.170500
     27 C27         -1.5740     0.9950     0.1640 ca         1 5C4      -0.169000
     28 C28          0.9700     2.5350    -0.3310 c3         1 5C4      -0.052900
     29 C29          4.0500     1.4330    -1.0640 ca         1 5C4      -0.056250
     30 C30          5.3470     1.9460    -0.8890 ca         1 5C4      -0.179500
     31 H1           7.5350     2.1490     1.4320 ho         1 5C4       0.464000
     32 H2           5.8320     1.0820     2.3840 ha         1 5C4       0.120750
     33 H3           3.5420     0.1750     2.0750 ha         1 5C4       0.118750
     34 H5           0.3800    -1.3460     1.3440 ha         1 5C4       0.118750
     35 H6           0.3710    -3.8250     1.4770 ha         1 5C4       0.120750
     36 H7           2.6880    -5.7840    -0.4260 ho         1 5C4       0.464000
     37 H8           3.6380    -3.9940    -1.3400 ha         1 5C4       0.120750
     38 H9           3.6470    -1.5220    -1.4860 ha         1 5C4       0.118750
     39 H11          0.1340    -0.8810    -2.1270 ha         1 5C4       0.120000
     40 H12         -2.1520    -1.7620    -2.5210 ha         1 5C4       0.113000
     41 H13         -4.0670    -0.8960    -1.2020 ha         1 5C4       0.124000
     42 H14         -3.6250     1.4110     1.5860 hn         1 5C4       0.491000
     43 H15         -5.7260     1.2210     2.6120 ha         1 5C4       0.116000
     44 H16         -8.1880     1.4070     2.3180 ha         1 5C4       0.110500
     45 H17         -9.1720     1.4120     0.0270 ha         1 5C4       0.114000
     46 H18         -7.6860     1.2490    -1.9680 ha         1 5C4       0.110500
     47 H19         -5.2270     1.0830    -1.6740 ha         1 5C4       0.116000
     48 H20         -1.4150     1.7520     0.9270 ha         1 5C4       0.111000
     49 H21          1.7860     2.9000    -0.9630 hc         1 5C4       0.046033
     50 H22          0.0540     2.9960    -0.7180 hc         1 5C4       0.046033
     51 H23          1.1340     2.9240     0.6800 hc         1 5C4       0.046033
     52 H24          3.5590     1.5210    -2.0310 ha         1 5C4       0.118750
     53 H25          5.8530     2.4350    -1.7170 ha         1 5C4       0.120750
@<TRIPOS>BOND
     1     1     2 1   
     2     1    31 1   
     3     2     3 ar  
     4     2    30 ar  
     5     3     4 ar  
     6     3    32 1   
     7     4     5 ar  
     8     4    33 1   
     9     5     6 1   
    10     5    29 ar  
    11     6     7 1   
    12     6    14 2   
    13     7     8 ar  
    14     7    13 ar  
    15     8     9 ar  
    16     8    34 1   
    17     9    10 ar  
    18     9    35 1   
    19    10    11 1   
    20    10    12 ar  
    21    11    36 1   
    22    12    13 ar  
    23    12    37 1   
    24    13    38 1   
    25    14    15 1   
    26    14    28 1   
    27    15    16 ar  
    28    15    27 ar  
    29    16    17 ar  
    30    16    39 1   
    31    17    18 ar  
    32    17    40 1   
    33    18    19 ar  
    34    18    41 1   
    35    19    20 1   
    36    19    27 ar  
    37    20    21 1   
    38    20    42 1   
    39    21    22 ar  
    40    21    26 ar  
    41    22    23 ar  
    42    22    43 1   
    43    23    24 ar  
    44    23    44 1   
    45    24    25 ar  
    46    24    45 1   
    47    25    26 ar  
    48    25    46 1   
    49    26    47 1   
    50    27    48 1   
    51    28    49 1   
    52    28    50 1   
    53    28    51 1   
    54    29    30 ar  
    55    29    52 1   
    56    30    53 1   
@<TRIPOS>SUBSTRUCTURE
     1 5C4         1 TEMP              0 ****  ****    0 ROOT
