@<TRIPOS>MOLECULE
5C4
   53    56     1     0     0
SMALL
abcg2


@<TRIPOS>ATOM
      1 O01          7.3170     2.1930     0.2380 oh         1 5C4      -0.533600
      2 C02          6.0490     1.7380     0.1970 ca         1 5C4       0.140600
      3 C03          5.5140     0.9100     1.1810 ca         1 5C4      -0.179500
      4 C04          4.2050     0.4680     1.0790 ca         1 5C4      -0.056250
      5 C05          3.3880     0.8460     0.0140 ca         1 5C4      -0.089800
      6 C06          2.0000     0.3380    -0.0890 ce         1 5C4       0.008600
      7 C07          1.8600    -1.1300     0.0630 ca         1 5C4      -0.089800
      8 C08          0.9170    -1.6950     0.9230 ca         1 5C4      -0.056250
      9 C09          0.8000    -3.0660     1.0710 ca         1 5C4      -0.179500
     10 C10          1.6370    -3.9170     0.3520 ca         1 5C4       0.140600
     11 O11          1.4860    -5.2460     0.5260 oh         1 5C4      -0.533600
     12 C12          2.5950    -3.3730    -0.5000 ca         1 5C4      -0.179500
     13 C13          2.7050    -1.9980    -0.6280 ca         1 5C4      -0.056250
     14 C14          0.9430     1.1490    -0.2970 cf         1 5C4      -0.046400
     15 C15         -0.4050     0.6010    -0.5930 ca         1 5C4      -0.018800
     16 C16         -0.5910    -0.2590    -1.6760 ca         1 5C4      -0.127000
     17 C17         -1.8570    -0.7460    -1.9560 ca         1 5C4      -0.079000
     18 C18         -2.9510    -0.3980    -1.1790 ca         1 5C4      -0.159000
     19 C19         -2.7870     0.4850    -0.1080 ca         1 5C4       0.319000
     20 N20         -3.8250     0.8510     0.7350 nu         1 5C4      -1.000000
     21 C21         -5.1810     0.9080     0.4630 ca         1 5C4       0.324000
     22 C22         -6.0790     0.8550     1.5360 ca         1 5C4      -0.170500
     23 C23         -7.4430     0.9520     1.3220 ca         1 5C4      -0.075000
     24 C24         -7.9520     1.0890     0.0350 ca         1 5C4      -0.149000
     25 C25         -7.0640     1.1470    -1.0310 ca         1 5C4      -0.075000
     26 C26         -5.6940     1.0680    -0.8280 ca         1 5C4      -0.170500
     27 C27         -1.5080     0.9810     0.1630 ca         1 5C4      -0.169000
     28 C28          1.0180     2.6490    -0.2850 c3         1 5C4      -0.052900
     29 C29          3.9450     1.6680    -0.9660 ca         1 5C4      -0.056250
     30 C30          5.2540     2.1120    -0.8840 ca         1 5C4      -0.179500
     31 H1           7.7700     1.8490     1.0160 ho         1 5C4       0.464000
     32 H2           6.1200     0.6030     2.0270 ha         1 5C4       0.120750
     33 H3           3.8130    -0.1840     1.8500 ha         1 5C4       0.118750
     34 H5           0.2660    -1.0510     1.4990 ha         1 5C4       0.118750
     35 H6           0.0660    -3.4820     1.7500 ha         1 5C4       0.120750
     36 H7           2.1370    -5.7280     0.0040 ho         1 5C4       0.464000
     37 H8           3.2600    -4.0210    -1.0610 ha         1 5C4       0.120750
     38 H9           3.4620    -1.5930    -1.2880 ha         1 5C4       0.118750
     39 H11          0.2530    -0.5460    -2.2890 ha         1 5C4       0.120000
     40 H12         -1.9990    -1.4220    -2.7900 ha         1 5C4       0.113000
     41 H13         -3.9200    -0.8260    -1.4000 ha         1 5C4       0.124000
     42 H14         -3.5520     1.1430     1.6600 hn         1 5C4       0.491000
     43 H15         -5.6980     0.7350     2.5440 ha         1 5C4       0.116000
     44 H16         -8.1150     0.9100     2.1690 ha         1 5C4       0.110500
     45 H17         -9.0180     1.1530    -0.1300 ha         1 5C4       0.114000
     46 H18         -7.4380     1.2720    -2.0400 ha         1 5C4       0.110500
     47 H19         -5.0290     1.1540    -1.6760 ha         1 5C4       0.116000
     48 H20         -1.3800     1.6630     0.9960 ha         1 5C4       0.111000
     49 H21          0.8500     3.0590    -1.2840 hc         1 5C4       0.046033
     50 H22          0.2330     3.0630     0.3510 hc         1 5C4       0.046033
     51 H23          1.9710     3.0230     0.0800 hc         1 5C4       0.046033
     52 H24          3.3500     1.9600    -1.8230 ha         1 5C4       0.118750
     53 H25          5.6660     2.7420    -1.6630 ha         1 5C4       0.120750
@<TRIPOS>BOND
     1     1     2 1   
     2     1    31 1   
     3     2     3 ar  
     4     2    30 ar  
     5     3     4 ar  
     6     3    32 1   
     7     4     5 ar  
     8     4    33 1   
     9     5     6 1   
    10     5    29 ar  
    11     6     7 1   
    12     6    14 2   
    13     7     8 ar  
    14     7    13 ar  
    15     8     9 ar  
    16     8    34 1   
    17     9    10 ar  
    18     9    35 1   
    19    10    11 1   
    20    10    12 ar  
    21    11    36 1   
    22    12    13 ar  
    23    12    37 1   
    24    13    38 1   
    25    14    15 1   
    26    14    28 1   
    27    15    16 ar  
    28    15    27 ar  
    29    16    17 ar  
    30    16    39 1   
    31    17    18 ar  
    32    17    40 1   
    33    18    19 ar  
    34    18    41 1   
    35    19    20 1   
    36    19    27 ar  
    37    20    21 1   
    38    20    42 1   
    39    21    22 ar  
    40    21    26 ar  
    41    22    23 ar  
    42    22    43 1   
    43    23    24 ar  
    44    23    44 1   
    45    24    25 ar  
    46    24    45 1   
    47    25    26 ar  
    48    25    46 1   
    49    26    47 1   
    50    27    48 1   
    51    28    49 1   
    52    28    50 1   
    53    28    51 1   
    54    29    30 ar  
    55    29    52 1   
    56    30    53 1   
@<TRIPOS>SUBSTRUCTURE
     1 5C4         1 TEMP              0 ****  ****    0 ROOT
