@<TRIPOS>MOLECULE
5C5
   54    57     1     0     0
SMALL
No Charge or Current Charge


@<TRIPOS>ATOM
      1 O2          28.6700    -6.2880   -10.6890 o          1 5C5      -0.725500
      2 C           27.7740    -5.8140   -10.0050 c          1 5C5       0.687000
      3 O           27.9050    -4.7890    -9.3480 o          1 5C5      -0.725500
      4 C1          26.4290    -6.6260    -9.8650 c3         1 5C5       0.020500
      5 N           26.0810    -7.0840    -8.4600 n8         1 5C5      -0.996200
      6 C2          25.2860    -5.8090   -10.5270 c3         1 5C5       0.113600
      7 S           23.7540    -6.8330   -10.8200 ss         1 5C5      -0.468000
      8 C3          22.8440    -5.8220   -12.1230 c3         1 5C5       0.248900
      9 C18         22.8070    -4.4240   -11.4640 ca         1 5C5      -0.101300
     10 C24         23.6440    -3.3660   -11.8910 ca         1 5C5      -0.059000
     11 C23         23.5940    -2.1100   -11.2600 ca         1 5C5      -0.169500
     12 C21         22.7120    -1.8940   -10.1810 ca         1 5C5       0.126100
     13 O1          22.6200    -0.6830    -9.5250 os         1 5C5      -0.357100
     14 C22         23.4150     0.4550    -9.9010 c3         1 5C5       0.150900
     15 C20         21.8940    -2.9430    -9.7400 ca         1 5C5      -0.169500
     16 C19         21.9430    -4.1990   -10.3690 ca         1 5C5      -0.059000
     17 C17         23.5520    -5.8410   -13.5100 ca         1 5C5      -0.050800
     18 C16         24.6650    -6.6990   -13.7380 ca         1 5C5      -0.087000
     19 C15         25.3270    -6.7410   -14.9730 ca         1 5C5      -0.114500
     20 C14         24.8900    -5.9390   -16.0260 ca         1 5C5      -0.116000
     21 C13         23.7760    -5.1150   -15.8460 ca         1 5C5      -0.128000
     22 C12         23.0810    -5.0600   -14.6170 ca         1 5C5      -0.063300
     23 C11         21.8640    -4.1090   -14.6300 c3         1 5C5      -0.022100
     24 C10         20.7180    -4.2480   -13.6010 c3         1 5C5      -0.022100
     25 C9          20.4460    -5.6600   -13.0920 ca         1 5C5      -0.063300
     26 C4          21.4230    -6.4070   -12.3750 ca         1 5C5      -0.050800
     27 C8          19.1720    -6.2150   -13.3420 ca         1 5C5      -0.128000
     28 C7          18.8530    -7.5080   -12.9120 ca         1 5C5      -0.116000
     29 C6          19.8120    -8.2660   -12.2350 ca         1 5C5      -0.114500
     30 C5          21.0830    -7.7280   -11.9770 ca         1 5C5      -0.087000
     31 H2          26.5600    -7.5340   -10.4710 h1         1 5C5       0.048700
     32 H3          26.8570    -7.6430    -8.0870 hn         1 5C5       0.387500
     33 H4          26.0660    -6.2630    -7.8440 hn         1 5C5       0.387500
     34 H6          25.6440    -5.4300   -11.4930 h1         1 5C5       0.067700
     35 H7          25.0360    -4.9430    -9.9000 h1         1 5C5       0.067700
     36 H8          24.3440    -3.5050   -12.7110 ha         1 5C5       0.125500
     37 H9          24.2490    -1.3210   -11.6200 ha         1 5C5       0.116500
     38 H10         23.1830     1.3110    -9.2540 h1         1 5C5       0.037700
     39 H11         24.4850     0.2340    -9.8010 h1         1 5C5       0.037700
     40 H12         23.2110     0.7490   -10.9390 h1         1 5C5       0.037700
     41 H13         21.2180    -2.7840    -8.9030 ha         1 5C5       0.116500
     42 H14         21.3040    -5.0010   -10.0060 ha         1 5C5       0.125500
     43 H15         25.0450    -7.3630   -12.9700 ha         1 5C5       0.146500
     44 H16         26.1810    -7.4010   -15.1100 ha         1 5C5       0.111500
     45 H17         25.4030    -5.9670   -16.9850 ha         1 5C5       0.101500
     46 H18         23.4420    -4.5080   -16.6850 ha         1 5C5       0.097000
     47 H19         22.2240    -3.0740   -14.5910 hc         1 5C5       0.043200
     48 H20         20.8760    -3.5560   -12.7700 hc         1 5C5       0.043200
     49 H21         18.4210    -5.6410   -13.8790 ha         1 5C5       0.097000
     50 H22         17.8690    -7.9240   -13.1140 ha         1 5C5       0.101500
     51 H23         19.5760    -9.2780   -11.9140 ha         1 5C5       0.111500
     52 H24         21.7940    -8.3730   -11.4710 ha         1 5C5       0.146500
     53 H5          21.3870    -4.2010   -15.6140 hc         1 5C5       0.043200
     54 H25         19.8150    -3.8470   -14.0770 hc         1 5C5       0.043200
@<TRIPOS>BOND
     1     1     2 1   
     2     2     3 1   
     3     2     4 1   
     4     4     5 1   
     5     4     6 1   
     6     4    31 1   
     7     5    32 1   
     8     5    33 1   
     9     6     7 1   
    10     6    34 1   
    11     6    35 1   
    12     7     8 1   
    13     8     9 1   
    14     8    17 1   
    15     8    26 1   
    16     9    10 ar  
    17     9    16 ar  
    18    10    11 ar  
    19    10    36 1   
    20    11    12 ar  
    21    11    37 1   
    22    12    13 1   
    23    12    15 ar  
    24    13    14 1   
    25    14    38 1   
    26    14    39 1   
    27    14    40 1   
    28    15    16 ar  
    29    15    41 1   
    30    16    42 1   
    31    17    18 ar  
    32    17    22 ar  
    33    18    19 ar  
    34    18    43 1   
    35    19    20 ar  
    36    19    44 1   
    37    20    21 ar  
    38    20    45 1   
    39    21    22 ar  
    40    21    46 1   
    41    22    23 1   
    42    23    24 1   
    43    23    47 1   
    44    23    53 1   
    45    24    25 1   
    46    24    48 1   
    47    24    54 1   
    48    25    26 ar  
    49    25    27 ar  
    50    26    30 ar  
    51    27    28 ar  
    52    27    49 1   
    53    28    29 ar  
    54    28    50 1   
    55    29    30 ar  
    56    29    51 1   
    57    30    52 1   
@<TRIPOS>SUBSTRUCTURE
     1 5C5         1 TEMP              0 ****  ****    0 ROOT
