@<TRIPOS>MOLECULE
5C5
   54    57     1     0     0
SMALL
abcg2


@<TRIPOS>ATOM
      1 O2          28.2690    -5.4830   -10.8290 o          1 5C5      -0.725500
      2 C           27.6130    -5.7300    -9.7850 c          1 5C5       0.687000
      3 O           27.8390    -5.2830    -8.6330 o          1 5C5      -0.725500
      4 C1          26.3680    -6.6490    -9.9590 c3         1 5C5       0.020500
      5 N           25.9310    -7.3390    -8.7420 n8         1 5C5      -0.996200
      6 C2          25.2410    -5.7780   -10.5080 c3         1 5C5       0.113600
      7 S           23.7470    -6.7830   -10.8090 ss         1 5C5      -0.468000
      8 C3          22.8660    -5.7500   -12.1090 c3         1 5C5       0.248900
      9 C18         22.8080    -4.3510   -11.5010 ca         1 5C5      -0.101300
     10 C24         23.6380    -3.3240   -11.9260 ca         1 5C5      -0.059000
     11 C23         23.6190    -2.0670   -11.3200 ca         1 5C5      -0.169500
     12 C21         22.7540    -1.8290   -10.2570 ca         1 5C5       0.126100
     13 O1          22.6500    -0.6430    -9.5960 os         1 5C5      -0.357100
     14 C22         23.4870     0.4350   -10.0130 c3         1 5C5       0.150900
     15 C20         21.9200    -2.8610    -9.8080 ca         1 5C5      -0.169500
     16 C19         21.9560    -4.0980   -10.4180 ca         1 5C5      -0.059000
     17 C17         23.5650    -5.7900   -13.4850 ca         1 5C5      -0.050800
     18 C16         24.6790    -6.6050   -13.6930 ca         1 5C5      -0.087000
     19 C15         25.3010    -6.7110   -14.9300 ca         1 5C5      -0.114500
     20 C14         24.7970    -5.9990   -16.0090 ca         1 5C5      -0.116000
     21 C13         23.6810    -5.1980   -15.8200 ca         1 5C5      -0.128000
     22 C12         23.0500    -5.0640   -14.5790 ca         1 5C5      -0.063300
     23 C11         21.8850    -4.0910   -14.5550 c3         1 5C5      -0.022100
     24 C10         20.7230    -4.2730   -13.5550 c3         1 5C5      -0.022100
     25 C9          20.4950    -5.6730   -13.0580 ca         1 5C5      -0.063300
     26 C4          21.4760    -6.3780   -12.3330 ca         1 5C5      -0.050800
     27 C8          19.2710    -6.2890   -13.3190 ca         1 5C5      -0.128000
     28 C7          18.9930    -7.5810   -12.8910 ca         1 5C5      -0.116000
     29 C6          19.9630    -8.2810   -12.1880 ca         1 5C5      -0.114500
     30 C5          21.1890    -7.6800   -11.9210 ca         1 5C5      -0.087000
     31 H2          26.6160    -7.4050   -10.7070 h1         1 5C5       0.048700
     32 H3          26.6320    -8.0280    -8.4860 hn         1 5C5       0.387500
     33 H4          25.9410    -6.6590    -7.9860 hn         1 5C5       0.387500
     34 H6          25.5560    -5.3240   -11.4440 h1         1 5C5       0.067700
     35 H7          24.9970    -4.9830    -9.8030 h1         1 5C5       0.067700
     36 H8          24.3200    -3.4880   -12.7490 ha         1 5C5       0.125500
     37 H9          24.2800    -1.2960   -11.6860 ha         1 5C5       0.116500
     38 H10         23.2450     1.2700    -9.3610 h1         1 5C5       0.037700
     39 H11         24.5430     0.1770    -9.9030 h1         1 5C5       0.037700
     40 H12         23.2860     0.7090   -11.0510 h1         1 5C5       0.037700
     41 H13         21.2530    -2.6710    -8.9760 ha         1 5C5       0.116500
     42 H14         21.3080    -4.8860   -10.0560 ha         1 5C5       0.125500
     43 H15         25.0610    -7.1840   -12.8660 ha         1 5C5       0.146500
     44 H16         26.1660    -7.3520   -15.0430 ha         1 5C5       0.111500
     45 H17         25.2580    -6.0710   -16.9860 ha         1 5C5       0.101500
     46 H18         23.2760    -4.6490   -16.6630 ha         1 5C5       0.097000
     47 H19         22.2930    -3.0860   -14.4110 hc         1 5C5       0.043200
     48 H20         20.8750    -3.6130   -12.7030 hc         1 5C5       0.043200
     49 H21         18.5230    -5.7350   -13.8740 ha         1 5C5       0.097000
     50 H22         18.0340    -8.0330   -13.1070 ha         1 5C5       0.101500
     51 H23         19.7780    -9.2920   -11.8480 ha         1 5C5       0.111500
     52 H24         21.9330    -8.2540   -11.3870 ha         1 5C5       0.146500
     53 H5          21.4650    -4.0980   -15.5620 hc         1 5C5       0.043200
     54 H25         19.8110    -3.9310   -14.0450 hc         1 5C5       0.043200
@<TRIPOS>BOND
     1     1     2 1   
     2     2     3 1   
     3     2     4 1   
     4     4     5 1   
     5     4     6 1   
     6     4    31 1   
     7     5    32 1   
     8     5    33 1   
     9     6     7 1   
    10     6    34 1   
    11     6    35 1   
    12     7     8 1   
    13     8     9 1   
    14     8    17 1   
    15     8    26 1   
    16     9    10 ar  
    17     9    16 ar  
    18    10    11 ar  
    19    10    36 1   
    20    11    12 ar  
    21    11    37 1   
    22    12    13 1   
    23    12    15 ar  
    24    13    14 1   
    25    14    38 1   
    26    14    39 1   
    27    14    40 1   
    28    15    16 ar  
    29    15    41 1   
    30    16    42 1   
    31    17    18 ar  
    32    17    22 ar  
    33    18    19 ar  
    34    18    43 1   
    35    19    20 ar  
    36    19    44 1   
    37    20    21 ar  
    38    20    45 1   
    39    21    22 ar  
    40    21    46 1   
    41    22    23 1   
    42    23    24 1   
    43    23    47 1   
    44    23    53 1   
    45    24    25 1   
    46    24    48 1   
    47    24    54 1   
    48    25    26 ar  
    49    25    27 ar  
    50    26    30 ar  
    51    27    28 ar  
    52    27    49 1   
    53    28    29 ar  
    54    28    50 1   
    55    29    30 ar  
    56    29    51 1   
    57    30    52 1   
@<TRIPOS>SUBSTRUCTURE
     1 5C5         1 TEMP              0 ****  ****    0 ROOT
