@<TRIPOS>MOLECULE
5C6
   62    66     1     0     0
SMALL
No Charge or Current Charge


@<TRIPOS>ATOM
      1 C01         -0.8320     2.9390     0.2810 c3         1 5C6      -0.087100
      2 C02         -1.1240     1.9650     1.4410 c3         1 5C6      -0.035200
      3 C03         -1.3430     0.5190     0.9910 ce         1 5C6      -0.046400
      4 C04         -2.4640     0.1280     0.2980 cf         1 5C6       0.011600
      5 C05         -2.6790    -1.2340    -0.2520 ca         1 5C6      -0.089800
      6 C06         -1.6390    -1.9140    -0.9230 ca         1 5C6      -0.056500
      7 C07         -1.8460    -3.2020    -1.4470 ca         1 5C6      -0.179250
      8 C08         -3.0970    -3.8220    -1.3100 ca         1 5C6       0.140100
      9 O09         -3.3060    -5.0700    -1.8150 oh         1 5C6      -0.533600
     10 C10         -4.1410    -3.1550    -0.6550 ca         1 5C6      -0.179250
     11 C11         -3.9360    -1.8670    -0.1310 ca         1 5C6      -0.056500
     12 C12         -3.5940     1.0180    -0.0530 ca         1 5C6      -0.089800
     13 C13         -4.3590     1.6460     0.9510 ca         1 5C6      -0.056500
     14 C14         -5.4360     2.4810     0.6070 ca         1 5C6      -0.179250
     15 C15         -5.7610     2.6880    -0.7420 ca         1 5C6       0.140100
     16 O16         -6.8040     3.4960    -1.0830 oh         1 5C6      -0.533600
     17 C17         -5.0150     2.0570    -1.7470 ca         1 5C6      -0.179250
     18 C18         -3.9380     1.2210    -1.4050 ca         1 5C6      -0.056500
     19 C19         -0.2490    -0.4130     1.3960 ca         1 5C6      -0.018800
     20 C20         -0.5430    -1.5610     2.1540 ca         1 5C6      -0.127000
     21 C21          0.4790    -2.4490     2.5250 ca         1 5C6      -0.076000
     22 C22          1.8070    -2.1860     2.1460 ca         1 5C6      -0.176000
     23 C23          2.1170    -1.0340     1.4070 ca         1 5C6       0.311000
     24 N24          3.4430    -0.8070     1.0360 nu         1 5C6      -0.994000
     25 C25          4.1510     0.3390     0.6390 ca         1 5C6       0.321000
     26 C26          3.7710     1.5940     1.1500 ca         1 5C6      -0.172000
     27 C27          4.4690     2.7580     0.7940 ca         1 5C6      -0.075000
     28 C28          5.5670     2.6760    -0.0730 ca         1 5C6      -0.132000
     29 C29          5.9740     1.4300    -0.5830 ca         1 5C6      -0.012000
     30 C30          7.0850     1.3660    -1.4460 ca         1 5C6      -0.104000
     31 C31          7.5060     0.1330    -1.9680 ca         1 5C6      -0.101000
     32 C32          6.8160    -1.0410    -1.6310 ca         1 5C6      -0.115000
     33 C33          5.7060    -0.9870    -0.7700 ca         1 5C6      -0.095000
     34 C34          5.2720     0.2500    -0.2310 ca         1 5C6      -0.063000
     35 C35          1.0850    -0.1600     1.0220 ca         1 5C6      -0.155000
     36 H1           0.0480     2.6170    -0.2870 hc         1 5C6       0.035700
     37 H2          -1.6820     2.9990    -0.4080 hc         1 5C6       0.035700
     38 H3          -0.6390     3.9460     0.6690 hc         1 5C6       0.035700
     39 H4          -0.2860     2.0200     2.1470 hc         1 5C6       0.047700
     40 H5          -1.9860     2.3360     2.0050 hc         1 5C6       0.047700
     41 H8          -0.6700    -1.4390    -1.0520 ha         1 5C6       0.118750
     42 H9          -1.0320    -3.7080    -1.9590 ha         1 5C6       0.120750
     43 H10         -2.4740    -5.3770    -2.2350 ho         1 5C6       0.464000
     44 H11         -5.1100    -3.6350    -0.5510 ha         1 5C6       0.120750
     45 H12         -4.7550    -1.3660     0.3810 ha         1 5C6       0.118750
     46 H13         -4.1270     1.4740     2.0000 ha         1 5C6       0.118750
     47 H14         -6.0150     2.9590     1.3950 ha         1 5C6       0.120750
     48 H15         -7.2060     3.8460    -0.2600 ho         1 5C6       0.464000
     49 H16         -5.2700     2.2130    -2.7920 ha         1 5C6       0.120750
     50 H17         -3.3630     0.7350    -2.1910 ha         1 5C6       0.118750
     51 H18         -1.5690    -1.7690     2.4500 ha         1 5C6       0.121000
     52 H19          0.2440    -3.3400     3.1040 ha         1 5C6       0.113000
     53 H20          2.5940    -2.8750     2.4380 ha         1 5C6       0.110000
     54 H21          4.0140    -1.6500     1.0440 hn         1 5C6       0.490000
     55 H22          2.9400     1.6710     1.8450 ha         1 5C6       0.124000
     56 H23          4.1640     3.7220     1.1960 ha         1 5C6       0.113000
     57 H24          6.1060     3.5810    -0.3430 ha         1 5C6       0.115000
     58 H25          7.6230     2.2720    -1.7140 ha         1 5C6       0.114000
     59 H26          8.3640     0.0880    -2.6350 ha         1 5C6       0.113000
     60 H27          7.1390    -1.9960    -2.0390 ha         1 5C6       0.112000
     61 H28          5.1890    -1.9140    -0.5380 ha         1 5C6       0.110000
     62 H29          1.3140     0.7060     0.4120 ha         1 5C6       0.127000
@<TRIPOS>BOND
     1     1     2 1   
     2     1    36 1   
     3     1    37 1   
     4     1    38 1   
     5     2     3 1   
     6     2    39 1   
     7     2    40 1   
     8     3     4 2   
     9     3    19 1   
    10     4     5 1   
    11     4    12 1   
    12     5     6 ar  
    13     5    11 ar  
    14     6     7 ar  
    15     6    41 1   
    16     7     8 ar  
    17     7    42 1   
    18     8     9 1   
    19     8    10 ar  
    20     9    43 1   
    21    10    11 ar  
    22    10    44 1   
    23    11    45 1   
    24    12    13 ar  
    25    12    18 ar  
    26    13    14 ar  
    27    13    46 1   
    28    14    15 ar  
    29    14    47 1   
    30    15    16 1   
    31    15    17 ar  
    32    16    48 1   
    33    17    18 ar  
    34    17    49 1   
    35    18    50 1   
    36    19    20 ar  
    37    19    35 ar  
    38    20    21 ar  
    39    20    51 1   
    40    21    22 ar  
    41    21    52 1   
    42    22    23 ar  
    43    22    53 1   
    44    23    24 1   
    45    23    35 ar  
    46    24    25 1   
    47    24    54 1   
    48    25    26 ar  
    49    25    34 ar  
    50    26    27 ar  
    51    26    55 1   
    52    27    28 ar  
    53    27    56 1   
    54    28    29 ar  
    55    28    57 1   
    56    29    30 ar  
    57    29    34 ar  
    58    30    31 ar  
    59    30    58 1   
    60    31    32 ar  
    61    31    59 1   
    62    32    33 ar  
    63    32    60 1   
    64    33    34 ar  
    65    33    61 1   
    66    35    62 1   
@<TRIPOS>SUBSTRUCTURE
     1 5C6         1 TEMP              0 ****  ****    0 ROOT
