@<TRIPOS>MOLECULE
5C6
   62    66     1     0     0
SMALL
bcc


@<TRIPOS>ATOM
      1 C01         -0.6260     2.7630    -0.0960 c3         1 5C6      -0.087100
      2 C02         -1.0220     1.9800     1.1560 c3         1 5C6      -0.035200
      3 C03         -1.3110     0.5190     0.8730 ce         1 5C6      -0.046400
      4 C04         -2.4370     0.1120     0.2560 cf         1 5C6       0.011600
      5 C05         -2.6430    -1.2700    -0.2360 ca         1 5C6      -0.089800
      6 C06         -1.6670    -1.9420    -0.9700 ca         1 5C6      -0.074500
      7 C07         -1.8750    -3.2260    -1.4460 ca         1 5C6      -0.197250
      8 C08         -3.0800    -3.8770    -1.1950 ca         1 5C6       0.140100
      9 O09         -3.3380    -5.1280    -1.6290 oh         1 5C6      -0.494600
     10 C10         -4.0750    -3.2160    -0.4770 ca         1 5C6      -0.197250
     11 C11         -3.8540    -1.9290    -0.0200 ca         1 5C6      -0.074500
     12 C12         -3.5570     1.0440    -0.0300 ca         1 5C6      -0.089800
     13 C13         -4.2710     1.6690     0.9880 ca         1 5C6      -0.074500
     14 C14         -5.3290     2.5230     0.7110 ca         1 5C6      -0.197250
     15 C15         -5.6970     2.7700    -0.6090 ca         1 5C6       0.140100
     16 O16         -6.7100     3.5940    -0.9430 oh         1 5C6      -0.494600
     17 C17         -5.0030     2.1390    -1.6410 ca         1 5C6      -0.197250
     18 C18         -3.9560     1.2840    -1.3460 ca         1 5C6      -0.074500
     19 C19         -0.2560    -0.4380     1.2860 ca         1 5C6      -0.018800
     20 C20         -0.5650    -1.5350     2.0900 ca         1 5C6      -0.145000
     21 C21          0.4400    -2.4030     2.4870 ca         1 5C6      -0.094000
     22 C22          1.7570    -2.1870     2.1130 ca         1 5C6      -0.194000
     23 C23          2.0860    -1.0840     1.3210 ca         1 5C6       0.172600
     24 N24          3.4000    -0.9140     0.9120 nu         1 5C6      -0.662000
     25 C25          4.0460     0.2900     0.6580 ca         1 5C6       0.182600
     26 C26          3.6450     1.4810     1.2220 ca         1 5C6      -0.190000
     27 C27          4.3380     2.6760     0.9600 ca         1 5C6      -0.093000
     28 C28          5.4480     2.6850     0.1630 ca         1 5C6      -0.150000
     29 C29          5.8980     1.4830    -0.4310 ca         1 5C6      -0.012000
     30 C30          7.0420     1.4620    -1.2640 ca         1 5C6      -0.122000
     31 C31          7.4550     0.3050    -1.8650 ca         1 5C6      -0.119000
     32 C32          6.7310    -0.8870    -1.6690 ca         1 5C6      -0.133000
     33 C33          5.6250    -0.9000    -0.8630 ca         1 5C6      -0.113000
     34 C34          5.1850     0.2750    -0.2080 ca         1 5C6      -0.063000
     35 C35          1.0670    -0.2210     0.9120 ca         1 5C6      -0.173000
     36 H1           0.2610     2.3460    -0.5760 hc         1 5C6       0.035700
     37 H2          -1.4300     2.7560    -0.8320 hc         1 5C6       0.035700
     38 H3          -0.4070     3.8010     0.1540 hc         1 5C6       0.035700
     39 H4          -0.2240     2.0510     1.8980 hc         1 5C6       0.047700
     40 H5          -1.8890     2.4600     1.6080 hc         1 5C6       0.047700
     41 H8          -0.7250    -1.4550    -1.1850 ha         1 5C6       0.136750
     42 H9          -1.0980    -3.7170    -2.0210 ha         1 5C6       0.138750
     43 H10         -2.5790    -5.4790    -2.1080 ho         1 5C6       0.425000
     44 H11         -5.0190    -3.7100    -0.2840 ha         1 5C6       0.138750
     45 H12         -4.6440    -1.4290     0.5280 ha         1 5C6       0.136750
     46 H13         -4.0070     1.4800     2.0210 ha         1 5C6       0.136750
     47 H14         -5.8690     2.9910     1.5270 ha         1 5C6       0.138750
     48 H15         -7.1140     3.9670    -0.1520 ho         1 5C6       0.425000
     49 H16         -5.2900     2.3200    -2.6690 ha         1 5C6       0.138750
     50 H17         -3.4330     0.7960    -2.1590 ha         1 5C6       0.136750
     51 H18         -1.5860    -1.7060     2.4030 ha         1 5C6       0.139000
     52 H19          0.2020    -3.2550     3.1110 ha         1 5C6       0.131000
     53 H20          2.5340    -2.8670     2.4400 ha         1 5C6       0.128000
     54 H21          3.9990    -1.7110     1.0550 hn         1 5C6       0.434800
     55 H22          2.7970     1.5040     1.8930 ha         1 5C6       0.142000
     56 H23          3.9900     3.5910     1.4200 ha         1 5C6       0.131000
     57 H24          5.9890     3.6040    -0.0240 ha         1 5C6       0.133000
     58 H25          7.5860     2.3850    -1.4210 ha         1 5C6       0.132000
     59 H26          8.3310     0.3050    -2.5000 ha         1 5C6       0.131000
     60 H27          7.0460    -1.7950    -2.1670 ha         1 5C6       0.130000
     61 H28          5.0750    -1.8250    -0.7470 ha         1 5C6       0.128000
     62 H29          1.3080     0.6150     0.2690 ha         1 5C6       0.145000
@<TRIPOS>BOND
     1     1     2 1   
     2     1    36 1   
     3     1    37 1   
     4     1    38 1   
     5     2     3 1   
     6     2    39 1   
     7     2    40 1   
     8     3     4 2   
     9     3    19 1   
    10     4     5 1   
    11     4    12 1   
    12     5     6 ar  
    13     5    11 ar  
    14     6     7 ar  
    15     6    41 1   
    16     7     8 ar  
    17     7    42 1   
    18     8     9 1   
    19     8    10 ar  
    20     9    43 1   
    21    10    11 ar  
    22    10    44 1   
    23    11    45 1   
    24    12    13 ar  
    25    12    18 ar  
    26    13    14 ar  
    27    13    46 1   
    28    14    15 ar  
    29    14    47 1   
    30    15    16 1   
    31    15    17 ar  
    32    16    48 1   
    33    17    18 ar  
    34    17    49 1   
    35    18    50 1   
    36    19    20 ar  
    37    19    35 ar  
    38    20    21 ar  
    39    20    51 1   
    40    21    22 ar  
    41    21    52 1   
    42    22    23 ar  
    43    22    53 1   
    44    23    24 1   
    45    23    35 ar  
    46    24    25 1   
    47    24    54 1   
    48    25    26 ar  
    49    25    34 ar  
    50    26    27 ar  
    51    26    55 1   
    52    27    28 ar  
    53    27    56 1   
    54    28    29 ar  
    55    28    57 1   
    56    29    30 ar  
    57    29    34 ar  
    58    30    31 ar  
    59    30    58 1   
    60    31    32 ar  
    61    31    59 1   
    62    32    33 ar  
    63    32    60 1   
    64    33    34 ar  
    65    33    61 1   
    66    35    62 1   
@<TRIPOS>SUBSTRUCTURE
     1 5C6         1 TEMP              0 ****  ****    0 ROOT
