@<TRIPOS>MOLECULE
5C7
   53    55     1     0     0
SMALL
bcc


@<TRIPOS>ATOM
      1 C01          1.1210     2.8200     0.2810 c3         1 5C7      -0.053900
      2 C02          0.6030     1.4180     0.1300 ce         1 5C7      -0.039400
      3 C03          1.3990     0.3360     0.0220 cf         1 5C7       0.004600
      4 C04          0.8790    -1.0520     0.0300 ca         1 5C7      -0.088800
      5 C05         -0.0190    -1.5020     0.9960 ca         1 5C7      -0.075000
      6 C06         -0.4920    -2.8040     0.9950 ca         1 5C7      -0.197500
      7 C07         -0.0730    -3.6980     0.0130 ca         1 5C7       0.139600
      8 O08         -0.5030    -4.9750    -0.0450 oh         1 5C7      -0.495100
      9 C09          0.8380    -3.2720    -0.9520 ca         1 5C7      -0.197500
     10 C10          1.3090    -1.9710    -0.9290 ca         1 5C7      -0.075000
     11 C11          2.8720     0.4450    -0.1080 ca         1 5C7      -0.088800
     12 C12          3.7140    -0.2520     0.7590 ca         1 5C7      -0.075000
     13 C13          5.0930    -0.1710     0.6500 ca         1 5C7      -0.197500
     14 C14          5.6680     0.6040    -0.3550 ca         1 5C7       0.139600
     15 O15          7.0020     0.7160    -0.5150 oh         1 5C7      -0.495100
     16 C16          4.8440     1.2890    -1.2440 ca         1 5C7      -0.197500
     17 C17          3.4670     1.2060    -1.1140 ca         1 5C7      -0.075000
     18 C18         -0.8760     1.3040     0.0920 ca         1 5C7      -0.058800
     19 C19         -1.5230     0.6510    -0.9580 ca         1 5C7      -0.115500
     20 C20         -2.9020     0.5520    -0.9960 ca         1 5C7      -0.129500
     21 C21         -3.7070     1.0970     0.0080 ca         1 5C7      -0.062300
     22 C22         -5.2220     0.9460    -0.0660 c3         1 5C7       0.000300
     23 C23         -5.7350     1.5790    -1.3660 c3         1 5C7      -0.082433
     24 C24         -5.5770    -0.5480    -0.0510 c3         1 5C7      -0.082433
     25 C25         -5.9320     1.6210     1.1070 c3         1 5C7      -0.082433
     26 C26         -3.0580     1.7600     1.0450 ca         1 5C7      -0.129500
     27 C27         -1.6730     1.8690     1.0830 ca         1 5C7      -0.115500
     28 H1           0.5980     3.3350     1.0900 hc         1 5C7       0.045033
     29 H2           2.1850     2.8590     0.4980 hc         1 5C7       0.045033
     30 H3           0.9410     3.4060    -0.6230 hc         1 5C7       0.045033
     31 H4          -0.3590    -0.8260     1.7700 ha         1 5C7       0.136750
     32 H5          -1.1840    -3.1240     1.7660 ha         1 5C7       0.138500
     33 H6          -1.1330    -5.1490     0.6640 ho         1 5C7       0.424500
     34 H7           1.1770    -3.9620    -1.7140 ha         1 5C7       0.138500
     35 H8           2.0200    -1.6610    -1.6850 ha         1 5C7       0.136750
     36 H9           3.2860    -0.8670     1.5410 ha         1 5C7       0.136750
     37 H10          5.7200    -0.7130     1.3490 ha         1 5C7       0.138500
     38 H11          7.4650     0.2180     0.1680 ho         1 5C7       0.424500
     39 H12          5.2830     1.8800    -2.0390 ha         1 5C7       0.138500
     40 H13          2.8410     1.7370    -1.8210 ha         1 5C7       0.136750
     41 H14         -0.9380     0.2110    -1.7560 ha         1 5C7       0.132500
     42 H15         -3.3560     0.0330    -1.8320 ha         1 5C7       0.129000
     43 H16         -5.2940     1.1170    -2.2500 hc         1 5C7       0.034922
     44 H17         -6.8190     1.4660    -1.4420 hc         1 5C7       0.034922
     45 H18         -5.5080     2.6460    -1.4000 hc         1 5C7       0.034922
     46 H19         -5.2280    -1.0250     0.8670 hc         1 5C7       0.034922
     47 H20         -6.6590    -0.6830    -0.1090 hc         1 5C7       0.034922
     48 H21         -5.1340    -1.0810    -0.8940 hc         1 5C7       0.034922
     49 H22         -5.7420     2.6960     1.1360 hc         1 5C7       0.034922
     50 H23         -7.0100     1.4840     1.0120 hc         1 5C7       0.034922
     51 H24         -5.6320     1.1980     2.0670 hc         1 5C7       0.034922
     52 H25         -3.6230     2.2050     1.8530 ha         1 5C7       0.129000
     53 H26         -1.2140     2.3850     1.9180 ha         1 5C7       0.132500
@<TRIPOS>BOND
     1     1     2 1   
     2     1    28 1   
     3     1    29 1   
     4     1    30 1   
     5     2     3 2   
     6     2    18 1   
     7     3     4 1   
     8     3    11 1   
     9     4     5 ar  
    10     4    10 ar  
    11     5     6 ar  
    12     5    31 1   
    13     6     7 ar  
    14     6    32 1   
    15     7     8 1   
    16     7     9 ar  
    17     8    33 1   
    18     9    10 ar  
    19     9    34 1   
    20    10    35 1   
    21    11    12 ar  
    22    11    17 ar  
    23    12    13 ar  
    24    12    36 1   
    25    13    14 ar  
    26    13    37 1   
    27    14    15 1   
    28    14    16 ar  
    29    15    38 1   
    30    16    17 ar  
    31    16    39 1   
    32    17    40 1   
    33    18    19 ar  
    34    18    27 ar  
    35    19    20 ar  
    36    19    41 1   
    37    20    21 ar  
    38    20    42 1   
    39    21    22 1   
    40    21    26 ar  
    41    22    23 1   
    42    22    24 1   
    43    22    25 1   
    44    23    43 1   
    45    23    44 1   
    46    23    45 1   
    47    24    46 1   
    48    24    47 1   
    49    24    48 1   
    50    25    49 1   
    51    25    50 1   
    52    25    51 1   
    53    26    27 ar  
    54    26    52 1   
    55    27    53 1   
@<TRIPOS>SUBSTRUCTURE
     1 5C7         1 TEMP              0 ****  ****    0 ROOT
