@<TRIPOS>MOLECULE
5C7
   53    55     1     0     0
SMALL
No Charge or Current Charge


@<TRIPOS>ATOM
      1 C01          1.1100     2.8680     0.0540 c3         1 5C7      -0.053900
      2 C02          0.5690     1.4430    -0.0250 ce         1 5C7      -0.039400
      3 C03          1.4080     0.3560    -0.0760 cf         1 5C7       0.004600
      4 C04          0.9480    -1.0570    -0.0520 ca         1 5C7      -0.088800
      5 C05         -0.0400    -1.4810     0.8630 ca         1 5C7      -0.057000
      6 C06         -0.4710    -2.8200     0.8830 ca         1 5C7      -0.179500
      7 C07          0.0840    -3.7480    -0.0100 ca         1 5C7       0.139600
      8 O08         -0.3280    -5.0470     0.0030 oh         1 5C7      -0.534100
      9 C09          1.0710    -3.3420    -0.9180 ca         1 5C7      -0.179500
     10 C10          1.5040    -2.0050    -0.9390 ca         1 5C7      -0.057000
     11 C11          2.8880     0.4370    -0.1360 ca         1 5C7      -0.088800
     12 C12          3.6750    -0.2800     0.7910 ca         1 5C7      -0.057000
     13 C13          5.0790    -0.2150     0.7360 ca         1 5C7      -0.179500
     14 C14          5.7070     0.5620    -0.2500 ca         1 5C7       0.139600
     15 O15          7.0660     0.6290    -0.3110 oh         1 5C7      -0.534100
     16 C16          4.9340     1.2690    -1.1820 ca         1 5C7      -0.179500
     17 C17          3.5310     1.2060    -1.1280 ca         1 5C7      -0.057000
     18 C18         -0.9200     1.3480    -0.0070 ca         1 5C7      -0.058800
     19 C19         -1.5970     0.7260    -1.0680 ca         1 5C7      -0.097500
     20 C20         -2.9970     0.6130    -1.0520 ca         1 5C7      -0.111500
     21 C21         -3.7610     1.1180     0.0260 ca         1 5C7      -0.062300
     22 C22         -5.3070     0.9660     0.0050 c3         1 5C7       0.000300
     23 C23         -5.8760     1.6840    -1.2480 c3         1 5C7      -0.082433
     24 C24         -5.6710    -0.5420    -0.0540 c3         1 5C7      -0.082433
     25 C25         -5.9960     1.5750     1.2590 c3         1 5C7      -0.082433
     26 C26         -3.0650     1.7430     1.0910 ca         1 5C7      -0.111500
     27 C27         -1.6640     1.8550     1.0720 ca         1 5C7      -0.097500
     28 H1           0.3740     3.5700     0.4630 hc         1 5C7       0.045033
     29 H2           1.9970     2.9290     0.6950 hc         1 5C7       0.045033
     30 H3           1.3840     3.2410    -0.9390 hc         1 5C7       0.045033
     31 H4          -0.4670    -0.7770     1.5720 ha         1 5C7       0.118750
     32 H5          -1.2340    -3.1260     1.5950 ha         1 5C7       0.120500
     33 H6          -1.0150    -5.1460     0.6960 ho         1 5C7       0.463500
     34 H7           1.5030    -4.0620    -1.6080 ha         1 5C7       0.120500
     35 H8           2.2660    -1.7030    -1.6550 ha         1 5C7       0.118750
     36 H9           3.1970    -0.8820     1.5600 ha         1 5C7       0.118750
     37 H10          5.6690    -0.7700     1.4610 ha         1 5C7       0.120500
     38 H11          7.4360     0.0760     0.4100 ho         1 5C7       0.463500
     39 H12          5.4210     1.8640    -1.9500 ha         1 5C7       0.120500
     40 H13          2.9440     1.7420    -1.8700 ha         1 5C7       0.118750
     41 H14         -1.0340     0.3250    -1.9080 ha         1 5C7       0.114500
     42 H15         -3.4840     0.1230    -1.8910 ha         1 5C7       0.111000
     43 H16         -5.5010     1.2380    -2.1760 hc         1 5C7       0.034922
     44 H17         -6.9710     1.6220    -1.2720 hc         1 5C7       0.034922
     45 H18         -5.5970     2.7450    -1.2460 hc         1 5C7       0.034922
     46 H19         -5.2450    -1.0770     0.8030 hc         1 5C7       0.034922
     47 H20         -6.7590    -0.6840    -0.0360 hc         1 5C7       0.034922
     48 H21         -5.2930    -1.0150    -0.9680 hc         1 5C7       0.034922
     49 H22         -5.7920     2.6500     1.3400 hc         1 5C7       0.034922
     50 H23         -7.0840     1.4500     1.2070 hc         1 5C7       0.034922
     51 H24         -5.6520     1.0830     2.1780 hc         1 5C7       0.034922
     52 H25         -3.5890     2.1490     1.9510 ha         1 5C7       0.111000
     53 H26         -1.1550     2.3280     1.9090 ha         1 5C7       0.114500
@<TRIPOS>BOND
     1     1     2 1   
     2     1    28 1   
     3     1    29 1   
     4     1    30 1   
     5     2     3 2   
     6     2    18 1   
     7     3     4 1   
     8     3    11 1   
     9     4     5 ar  
    10     4    10 ar  
    11     5     6 ar  
    12     5    31 1   
    13     6     7 ar  
    14     6    32 1   
    15     7     8 1   
    16     7     9 ar  
    17     8    33 1   
    18     9    10 ar  
    19     9    34 1   
    20    10    35 1   
    21    11    12 ar  
    22    11    17 ar  
    23    12    13 ar  
    24    12    36 1   
    25    13    14 ar  
    26    13    37 1   
    27    14    15 1   
    28    14    16 ar  
    29    15    38 1   
    30    16    17 ar  
    31    16    39 1   
    32    17    40 1   
    33    18    19 ar  
    34    18    27 ar  
    35    19    20 ar  
    36    19    41 1   
    37    20    21 ar  
    38    20    42 1   
    39    21    22 1   
    40    21    26 ar  
    41    22    23 1   
    42    22    24 1   
    43    22    25 1   
    44    23    43 1   
    45    23    44 1   
    46    23    45 1   
    47    24    46 1   
    48    24    47 1   
    49    24    48 1   
    50    25    49 1   
    51    25    50 1   
    52    25    51 1   
    53    26    27 ar  
    54    26    52 1   
    55    27    53 1   
@<TRIPOS>SUBSTRUCTURE
     1 5C7         1 TEMP              0 ****  ****    0 ROOT
