@<TRIPOS>MOLECULE
5C8
   47    50     1     0     0
SMALL
abcg2


@<TRIPOS>ATOM
      1 C01         -0.7230     2.7770     0.0510 c3         1 5C8      -0.052900
      2 C02         -0.3170     1.3320     0.1200 ce         1 5C8      -0.047400
      3 C03         -1.1850     0.3020     0.0540 cf         1 5C8       0.009600
      4 C04         -2.6530     0.4970     0.0760 ca         1 5C8      -0.091300
      5 C05         -3.4620    -0.0810    -0.9010 ca         1 5C8      -0.056250
      6 C06         -4.8380     0.0790    -0.8920 ca         1 5C8      -0.180000
      7 C07         -5.4460     0.8160     0.1230 ca         1 5C8       0.141600
      8 O08         -6.7790     1.0010     0.1880 oh         1 5C8      -0.533600
      9 C09         -4.6570     1.3820     1.1210 ca         1 5C8      -0.180000
     10 C10         -3.2820     1.2200     1.0900 ca         1 5C8      -0.056250
     11 C11         -0.7410    -1.1060    -0.0610 ca         1 5C8      -0.091300
     12 C12          0.2230    -1.4990    -0.9880 ca         1 5C8      -0.056250
     13 C13          0.6270    -2.8200    -1.0970 ca         1 5C8      -0.180000
     14 C14          0.0700    -3.7900    -0.2690 ca         1 5C8       0.141600
     15 O15          0.4260    -5.0890    -0.3240 oh         1 5C8      -0.533600
     16 C16         -0.9050    -3.4200     0.6550 ca         1 5C8      -0.180000
     17 C17         -1.3060    -2.0980     0.7430 ca         1 5C8      -0.056250
     18 C18          1.1400     1.1080     0.2900 ca         1 5C8      -0.047800
     19 C19          1.6120     0.3220     1.3740 ca         1 5C8      -0.089000
     20 C20          2.9480     0.1340     1.5830 ca         1 5C8      -0.101000
     21 C21          3.9070     0.7080     0.7150 ca         1 5C8      -0.035000
     22 C22          5.2970     0.5250     0.8960 ca         1 5C8      -0.098000
     23 C23          6.1940     1.0920     0.0310 ca         1 5C8      -0.108000
     24 C24          5.7400     1.8700    -1.0550 ca         1 5C8      -0.109000
     25 C25          4.4000     2.0690    -1.2500 ca         1 5C8      -0.098000
     26 C26          3.4490     1.4960    -0.3720 ca         1 5C8      -0.038000
     27 C27          2.0600     1.6880    -0.5480 ca         1 5C8      -0.095000
     28 H1          -0.1190     3.3030    -0.6910 hc         1 5C8       0.045700
     29 H2          -1.7680     2.9110    -0.2160 hc         1 5C8       0.045700
     30 H3          -0.5480     3.2810     1.0040 hc         1 5C8       0.045700
     31 H4          -3.0090    -0.6640    -1.6950 ha         1 5C8       0.119000
     32 H5          -5.4360    -0.3730    -1.6750 ha         1 5C8       0.121250
     33 H6          -7.2150     0.5700    -0.5560 ho         1 5C8       0.464500
     34 H7          -5.1230     1.9410     1.9230 ha         1 5C8       0.121250
     35 H8          -2.6870     1.6580     1.8830 ha         1 5C8       0.119000
     36 H9           0.6660    -0.7650    -1.6480 ha         1 5C8       0.119000
     37 H10          1.3730    -3.0920    -1.8360 ha         1 5C8       0.121250
     38 H11          1.1110    -5.2220    -0.9890 ho         1 5C8       0.464500
     39 H12         -1.3490    -4.1680     1.3000 ha         1 5C8       0.121250
     40 H13         -2.0710    -1.8350     1.4640 ha         1 5C8       0.119000
     41 H14          0.8950    -0.1260     2.0500 ha         1 5C8       0.120000
     42 H15          3.2870    -0.4570     2.4250 ha         1 5C8       0.114000
     43 H16          5.6440    -0.0710     1.7320 ha         1 5C8       0.113000
     44 H17          7.2560     0.9450     0.1770 ha         1 5C8       0.112000
     45 H18          6.4580     2.3120    -1.7340 ha         1 5C8       0.112000
     46 H19          4.0510     2.6660    -2.0850 ha         1 5C8       0.112000
     47 H20          1.7310     2.2920    -1.3870 ha         1 5C8       0.113000
@<TRIPOS>BOND
     1     1     2 1   
     2     1    28 1   
     3     1    29 1   
     4     1    30 1   
     5     2     3 2   
     6     2    18 1   
     7     3     4 1   
     8     3    11 1   
     9     4     5 ar  
    10     4    10 ar  
    11     5     6 ar  
    12     5    31 1   
    13     6     7 ar  
    14     6    32 1   
    15     7     8 1   
    16     7     9 ar  
    17     8    33 1   
    18     9    10 ar  
    19     9    34 1   
    20    10    35 1   
    21    11    12 ar  
    22    11    17 ar  
    23    12    13 ar  
    24    12    36 1   
    25    13    14 ar  
    26    13    37 1   
    27    14    15 1   
    28    14    16 ar  
    29    15    38 1   
    30    16    17 ar  
    31    16    39 1   
    32    17    40 1   
    33    18    19 ar  
    34    18    27 ar  
    35    19    20 ar  
    36    19    41 1   
    37    20    21 ar  
    38    20    42 1   
    39    21    22 ar  
    40    21    26 ar  
    41    22    23 ar  
    42    22    43 1   
    43    23    24 ar  
    44    23    44 1   
    45    24    25 ar  
    46    24    45 1   
    47    25    26 ar  
    48    25    46 1   
    49    26    27 ar  
    50    27    47 1   
@<TRIPOS>SUBSTRUCTURE
     1 5C8         1 TEMP              0 ****  ****    0 ROOT
