@<TRIPOS>MOLECULE
5C8
   47    50     1     0     0
SMALL
No Charge or Current Charge


@<TRIPOS>ATOM
      1 C01         -0.7160     2.8060     0.3370 c3         1 5C8      -0.052900
      2 C02         -0.2680     1.3470     0.3170 ce         1 5C8      -0.047400
      3 C03         -1.1670     0.3190     0.1750 cf         1 5C8       0.009600
      4 C04         -2.6390     0.4900     0.1040 ca         1 5C8      -0.091300
      5 C05         -3.3690    -0.0790    -0.9620 ca         1 5C8      -0.056250
      6 C06         -4.7660     0.0720    -1.0310 ca         1 5C8      -0.180000
      7 C07         -5.4440     0.7870    -0.0320 ca         1 5C8       0.141600
      8 O08         -6.7970     0.9360    -0.0910 oh         1 5C8      -0.533600
      9 C09         -4.7290     1.3460     1.0360 ca         1 5C8      -0.180000
     10 C10         -3.3330     1.1980     1.1070 ca         1 5C8      -0.056250
     11 C11         -0.7870    -1.1120     0.0460 ca         1 5C8      -0.091300
     12 C12          0.2580    -1.5070    -0.8160 ca         1 5C8      -0.056250
     13 C13          0.6150    -2.8620    -0.9350 ca         1 5C8      -0.180000
     14 C14         -0.0720    -3.8360    -0.1950 ca         1 5C8       0.141600
     15 O15          0.2680    -5.1500    -0.3050 oh         1 5C8      -0.533600
     16 C16         -1.1170    -3.4580     0.6580 ca         1 5C8      -0.180000
     17 C17         -1.4760    -2.1040     0.7780 ca         1 5C8      -0.056250
     18 C18          1.2070     1.1560     0.4280 ca         1 5C8      -0.047800
     19 C19          1.7360     0.3940     1.4870 ca         1 5C8      -0.089000
     20 C20          3.1230     0.1910     1.5950 ca         1 5C8      -0.101000
     21 C21          3.9940     0.7500     0.6420 ca         1 5C8      -0.035000
     22 C22          5.3840     0.5490     0.7450 ca         1 5C8      -0.098000
     23 C23          6.2490     1.1070    -0.2120 ca         1 5C8      -0.108000
     24 C24          5.7280     1.8670    -1.2730 ca         1 5C8      -0.109000
     25 C25          4.3410     2.0710    -1.3800 ca         1 5C8      -0.098000
     26 C26          3.4700     1.5140    -0.4230 ca         1 5C8      -0.038000
     27 C27          2.0810     1.7140    -0.5270 ca         1 5C8      -0.095000
     28 H1           0.0950     3.4940     0.0740 hc         1 5C8       0.045700
     29 H2          -1.5300     2.9890    -0.3750 hc         1 5C8       0.045700
     30 H3          -1.0670     3.0970     1.3330 hc         1 5C8       0.045700
     31 H4          -2.8510    -0.6330    -1.7420 ha         1 5C8       0.119000
     32 H5          -5.3120    -0.3700    -1.8620 ha         1 5C8       0.121250
     33 H6          -7.1240     0.4820    -0.8970 ho         1 5C8       0.464500
     34 H7          -5.2560     1.8930     1.8140 ha         1 5C8       0.121250
     35 H8          -2.7940     1.6190     1.9520 ha         1 5C8       0.119000
     36 H9           0.7890    -0.7650    -1.4080 ha         1 5C8       0.119000
     37 H10          1.4240    -3.1450    -1.6040 ha         1 5C8       0.121250
     38 H11          1.0120    -5.2260    -0.9400 ho         1 5C8       0.464500
     39 H12         -1.6500    -4.2120     1.2300 ha         1 5C8       0.121250
     40 H13         -2.2850    -1.8250     1.4500 ha         1 5C8       0.119000
     41 H14          1.0690    -0.0450     2.2250 ha         1 5C8       0.120000
     42 H15          3.5160    -0.4010     2.4180 ha         1 5C8       0.114000
     43 H16          5.7940    -0.0390     1.5630 ha         1 5C8       0.113000
     44 H17          7.3220     0.9510    -0.1310 ha         1 5C8       0.112000
     45 H18          6.3980     2.2990    -2.0130 ha         1 5C8       0.112000
     46 H19          3.9450     2.6600    -2.2040 ha         1 5C8       0.112000
     47 H20          1.6770     2.2930    -1.3540 ha         1 5C8       0.113000
@<TRIPOS>BOND
     1     1     2 1   
     2     1    28 1   
     3     1    29 1   
     4     1    30 1   
     5     2     3 2   
     6     2    18 1   
     7     3     4 1   
     8     3    11 1   
     9     4     5 ar  
    10     4    10 ar  
    11     5     6 ar  
    12     5    31 1   
    13     6     7 ar  
    14     6    32 1   
    15     7     8 1   
    16     7     9 ar  
    17     8    33 1   
    18     9    10 ar  
    19     9    34 1   
    20    10    35 1   
    21    11    12 ar  
    22    11    17 ar  
    23    12    13 ar  
    24    12    36 1   
    25    13    14 ar  
    26    13    37 1   
    27    14    15 1   
    28    14    16 ar  
    29    15    38 1   
    30    16    17 ar  
    31    16    39 1   
    32    17    40 1   
    33    18    19 ar  
    34    18    27 ar  
    35    19    20 ar  
    36    19    41 1   
    37    20    21 ar  
    38    20    42 1   
    39    21    22 ar  
    40    21    26 ar  
    41    22    23 ar  
    42    22    43 1   
    43    23    24 ar  
    44    23    44 1   
    45    24    25 ar  
    46    24    45 1   
    47    25    26 ar  
    48    25    46 1   
    49    26    27 ar  
    50    27    47 1   
@<TRIPOS>SUBSTRUCTURE
     1 5C8         1 TEMP              0 ****  ****    0 ROOT
