@<TRIPOS>MOLECULE
5C9
   59    62     1     0     0
SMALL
bcc


@<TRIPOS>ATOM
      1 C01         -1.2120     1.8990    -3.1660 c3         1 5C9      -0.085100
      2 C02         -1.0700     1.9110    -1.6460 c3         1 5C9      -0.038200
      3 C03         -1.0180     0.5330    -1.0400 ce         1 5C9      -0.046400
      4 C04         -1.9730     0.0220    -0.2390 cf         1 5C9       0.009600
      5 C05         -3.2660     0.7050     0.0040 ca         1 5C9      -0.089800
      6 C06         -4.1050     1.0790    -1.0460 ca         1 5C9      -0.074000
      7 C07         -5.3310     1.6820    -0.8180 ca         1 5C9      -0.197500
      8 C08         -5.7540     1.9240     0.4870 ca         1 5C9       0.141100
      9 O09         -6.9550     2.5070     0.6630 oh         1 5C9      -0.494600
     10 C10         -4.9350     1.5490     1.5500 ca         1 5C9      -0.197500
     11 C11         -3.7150     0.9400     1.3040 ca         1 5C9      -0.074000
     12 C12         -1.8020    -1.2640     0.4780 ca         1 5C9      -0.089800
     13 C13         -0.6650    -1.5360     1.2360 ca         1 5C9      -0.074000
     14 C14         -0.5150    -2.7350     1.9140 ca         1 5C9      -0.197500
     15 C15         -1.5140    -3.7030     1.8460 ca         1 5C9       0.141100
     16 O16         -1.4230    -4.8910     2.4780 oh         1 5C9      -0.494600
     17 C17         -2.6670    -3.4430     1.1070 ca         1 5C9      -0.197500
     18 C18         -2.8040    -2.2350     0.4450 ca         1 5C9      -0.074000
     19 C19          0.1790    -0.2640    -1.4130 ca         1 5C9      -0.021800
     20 C20          0.0320    -1.4660    -2.1020 ca         1 5C9      -0.141000
     21 C21          1.1540    -2.1750    -2.5000 ca         1 5C9      -0.097000
     22 C22          2.4260    -1.7190    -2.1940 ca         1 5C9      -0.187000
     23 C23          2.5910    -0.5170    -1.5000 ca         1 5C9       0.174600
     24 N24          3.8770    -0.0630    -1.2400 nu         1 5C9      -0.667000
     25 C25          4.3260     0.6400    -0.1350 ca         1 5C9       0.189600
     26 C26          3.6090     0.7270     1.0630 ca         1 5C9      -0.191000
     27 C27          4.1430     1.4300     2.1310 ca         1 5C9      -0.091000
     28 C28          5.3850     2.0430     2.0450 ca         1 5C9      -0.168000
     29 C29          6.1200     1.9490     0.8650 ca         1 5C9      -0.037300
     30 C30          7.4820     2.5710     0.7500 c3         1 5C9      -0.048800
     31 C31          5.5780     1.2580    -0.2120 ca         1 5C9      -0.197000
     32 C32          1.4580     0.2140    -1.1410 ca         1 5C9      -0.169000
     33 H1          -1.2060     2.9160    -3.5590 hc         1 5C9       0.035033
     34 H2          -0.3960     1.3540    -3.6400 hc         1 5C9       0.035033
     35 H3          -2.1470     1.4290    -3.4730 hc         1 5C9       0.035033
     36 H4          -0.1410     2.4320    -1.3890 hc         1 5C9       0.051200
     37 H5          -1.8760     2.4950    -1.2020 hc         1 5C9       0.051200
     38 H8          -3.8040     0.8780    -2.0660 ha         1 5C9       0.136000
     39 H9          -5.9680     1.9540    -1.6500 ha         1 5C9       0.138750
     40 H10         -7.1520     2.5950     1.6020 ho         1 5C9       0.425500
     41 H11         -5.2510     1.7260     2.5720 ha         1 5C9       0.138750
     42 H12         -3.0980     0.6470     2.1450 ha         1 5C9       0.136000
     43 H13          0.1210    -0.7960     1.3080 ha         1 5C9       0.136000
     44 H14          0.3790    -2.9130     2.5010 ha         1 5C9       0.138750
     45 H15         -0.5960    -4.9470     2.9680 ho         1 5C9       0.425500
     46 H16         -3.4520    -4.1870     1.0550 ha         1 5C9       0.138750
     47 H17         -3.7110    -2.0490    -0.1180 ha         1 5C9       0.136000
     48 H18         -0.9590    -1.8350    -2.3350 ha         1 5C9       0.139000
     49 H19          1.0400    -3.1020    -3.0490 ha         1 5C9       0.131000
     50 H20          3.2970    -2.2920    -2.4910 ha         1 5C9       0.129000
     51 H21          4.5950    -0.4070    -1.8570 hn         1 5C9       0.435800
     52 H22          2.6510     0.2390     1.1740 ha         1 5C9       0.139000
     53 H23          3.5770     1.4900     3.0530 ha         1 5C9       0.128000
     54 H24          5.7840     2.5890     2.8900 ha         1 5C9       0.131000
     55 H25          8.2650     1.8210     0.8780 hc         1 5C9       0.042367
     56 H26          7.6330     3.0270    -0.2290 hc         1 5C9       0.042367
     57 H27          7.6370     3.3370     1.5080 hc         1 5C9       0.042367
     58 H28          6.1380     1.1970    -1.1400 ha         1 5C9       0.127000
     59 H29          1.5710     1.1690    -0.6420 ha         1 5C9       0.143000
@<TRIPOS>BOND
     1     1     2 1   
     2     1    33 1   
     3     1    34 1   
     4     1    35 1   
     5     2     3 1   
     6     2    36 1   
     7     2    37 1   
     8     3     4 2   
     9     3    19 1   
    10     4     5 1   
    11     4    12 1   
    12     5     6 ar  
    13     5    11 ar  
    14     6     7 ar  
    15     6    38 1   
    16     7     8 ar  
    17     7    39 1   
    18     8     9 1   
    19     8    10 ar  
    20     9    40 1   
    21    10    11 ar  
    22    10    41 1   
    23    11    42 1   
    24    12    13 ar  
    25    12    18 ar  
    26    13    14 ar  
    27    13    43 1   
    28    14    15 ar  
    29    14    44 1   
    30    15    16 1   
    31    15    17 ar  
    32    16    45 1   
    33    17    18 ar  
    34    17    46 1   
    35    18    47 1   
    36    19    20 ar  
    37    19    32 ar  
    38    20    21 ar  
    39    20    48 1   
    40    21    22 ar  
    41    21    49 1   
    42    22    23 ar  
    43    22    50 1   
    44    23    24 1   
    45    23    32 ar  
    46    24    25 1   
    47    24    51 1   
    48    25    26 ar  
    49    25    31 ar  
    50    26    27 ar  
    51    26    52 1   
    52    27    28 ar  
    53    27    53 1   
    54    28    29 ar  
    55    28    54 1   
    56    29    30 1   
    57    29    31 ar  
    58    30    55 1   
    59    30    56 1   
    60    30    57 1   
    61    31    58 1   
    62    32    59 1   
@<TRIPOS>SUBSTRUCTURE
     1 5C9         1 TEMP              0 ****  ****    0 ROOT
