@<TRIPOS>MOLECULE
5C9
   59    62     1     0     0
SMALL
No Charge or Current Charge


@<TRIPOS>ATOM
      1 C01         -1.1590     1.8440    -3.2260 c3         1 5C9      -0.085100
      2 C02         -1.0230     1.8560    -1.6900 c3         1 5C9      -0.038200
      3 C03         -0.9860     0.4540    -1.0780 ce         1 5C9      -0.046400
      4 C04         -2.0000    -0.0420    -0.2940 cf         1 5C9       0.009600
      5 C05         -3.2620     0.6690     0.0210 ca         1 5C9      -0.089800
      6 C06         -4.1190     1.1090    -1.0080 ca         1 5C9      -0.056000
      7 C07         -5.3210     1.7680    -0.6990 ca         1 5C9      -0.179500
      8 C08         -5.6810     1.9870     0.6380 ca         1 5C9       0.141100
      9 O09         -6.8480     2.6270     0.9260 oh         1 5C9      -0.533600
     10 C10         -4.8410     1.5430     1.6710 ca         1 5C9      -0.179500
     11 C11         -3.6380     0.8830     1.3640 ca         1 5C9      -0.056000
     12 C12         -1.9560    -1.3600     0.3880 ca         1 5C9      -0.089800
     13 C13         -0.8010    -1.7740     1.0870 ca         1 5C9      -0.056000
     14 C14         -0.7640    -3.0220     1.7330 ca         1 5C9      -0.179500
     15 C15         -1.8830    -3.8670     1.6920 ca         1 5C9       0.141100
     16 O16         -1.8540    -5.0770     2.3160 oh         1 5C9      -0.533600
     17 C17         -3.0380    -3.4640     1.0100 ca         1 5C9      -0.179500
     18 C18         -3.0780    -2.2170     0.3630 ca         1 5C9      -0.056000
     19 C19          0.2400    -0.3220    -1.4250 ca         1 5C9      -0.021800
     20 C20          0.1250    -1.5340    -2.1320 ca         1 5C9      -0.123000
     21 C21          1.2720    -2.2690    -2.4720 ca         1 5C9      -0.079000
     22 C22          2.5420    -1.7980    -2.0960 ca         1 5C9      -0.169000
     23 C23          2.6690    -0.6030    -1.3720 ca         1 5C9       0.313000
     24 N24          3.9460    -0.1610    -1.0190 nu         1 5C9      -0.999000
     25 C25          4.4280     0.6740    -0.0090 ca         1 5C9       0.328000
     26 C26          3.7250     0.8580     1.1940 ca         1 5C9      -0.173000
     27 C27          4.2450     1.6910     2.1990 ca         1 5C9      -0.073000
     28 C28          5.4770     2.3370     2.0050 ca         1 5C9      -0.150000
     29 C29          6.1960     2.1480     0.8110 ca         1 5C9      -0.037300
     30 C30          7.5360     2.8370     0.6050 c3         1 5C9      -0.048800
     31 C31          5.6680     1.3080    -0.1880 ca         1 5C9      -0.179000
     32 C32          1.5180     0.1390    -1.0530 ca         1 5C9      -0.151000
     33 H1          -1.2180     2.8680    -3.6130 hc         1 5C9       0.035033
     34 H2          -0.2930     1.3540    -3.6880 hc         1 5C9       0.035033
     35 H3          -2.0620     1.3060    -3.5350 hc         1 5C9       0.035033
     36 H4          -0.1080     2.4020    -1.4340 hc         1 5C9       0.051200
     37 H5          -1.8320     2.4630    -1.2700 hc         1 5C9       0.051200
     38 H8          -3.8590     0.9280    -2.0480 ha         1 5C9       0.118000
     39 H9          -5.9760     2.1050    -1.5000 ha         1 5C9       0.120750
     40 H10         -6.9350     2.6880     1.9020 ho         1 5C9       0.464500
     41 H11         -5.1130     1.7040     2.7110 ha         1 5C9       0.120750
     42 H12         -2.9920     0.5420     2.1700 ha         1 5C9       0.118000
     43 H13          0.0670    -1.1220     1.1430 ha         1 5C9       0.118000
     44 H14          0.1360    -3.3210     2.2660 ha         1 5C9       0.120750
     45 H15         -0.9750    -5.1880     2.7370 ho         1 5C9       0.464500
     46 H16         -3.9060    -4.1180     0.9790 ha         1 5C9       0.120750
     47 H17         -3.9800    -1.9220    -0.1690 ha         1 5C9       0.118000
     48 H18         -0.8570    -1.9000    -2.4230 ha         1 5C9       0.121000
     49 H19          1.1770    -3.2010    -3.0240 ha         1 5C9       0.113000
     50 H20          3.4250    -2.3730    -2.3600 ha         1 5C9       0.111000
     51 H21          4.6820    -0.5280    -1.6220 hn         1 5C9       0.491000
     52 H22          2.7850     0.3420     1.3650 ha         1 5C9       0.121000
     53 H23          3.6970     1.8300     3.1290 ha         1 5C9       0.110000
     54 H24          5.8760     2.9790     2.7870 ha         1 5C9       0.113000
     55 H25          8.3590     2.2010     0.9530 hc         1 5C9       0.042367
     56 H26          7.7110     3.0620    -0.4540 hc         1 5C9       0.042367
     57 H27          7.5880     3.7840     1.1550 hc         1 5C9       0.042367
     58 H28          6.2220     1.1560    -1.1110 ha         1 5C9       0.109000
     59 H29          1.6120     1.0790    -0.5200 ha         1 5C9       0.125000
@<TRIPOS>BOND
     1     1     2 1   
     2     1    33 1   
     3     1    34 1   
     4     1    35 1   
     5     2     3 1   
     6     2    36 1   
     7     2    37 1   
     8     3     4 2   
     9     3    19 1   
    10     4     5 1   
    11     4    12 1   
    12     5     6 ar  
    13     5    11 ar  
    14     6     7 ar  
    15     6    38 1   
    16     7     8 ar  
    17     7    39 1   
    18     8     9 1   
    19     8    10 ar  
    20     9    40 1   
    21    10    11 ar  
    22    10    41 1   
    23    11    42 1   
    24    12    13 ar  
    25    12    18 ar  
    26    13    14 ar  
    27    13    43 1   
    28    14    15 ar  
    29    14    44 1   
    30    15    16 1   
    31    15    17 ar  
    32    16    45 1   
    33    17    18 ar  
    34    17    46 1   
    35    18    47 1   
    36    19    20 ar  
    37    19    32 ar  
    38    20    21 ar  
    39    20    48 1   
    40    21    22 ar  
    41    21    49 1   
    42    22    23 ar  
    43    22    50 1   
    44    23    24 1   
    45    23    32 ar  
    46    24    25 1   
    47    24    51 1   
    48    25    26 ar  
    49    25    31 ar  
    50    26    27 ar  
    51    26    52 1   
    52    27    28 ar  
    53    27    53 1   
    54    28    29 ar  
    55    28    54 1   
    56    29    30 1   
    57    29    31 ar  
    58    30    55 1   
    59    30    56 1   
    60    30    57 1   
    61    31    58 1   
    62    32    59 1   
@<TRIPOS>SUBSTRUCTURE
     1 5C9         1 TEMP              0 ****  ****    0 ROOT
