@<TRIPOS>MOLECULE
5CA
   48    50     1     0     0
SMALL
No Charge or Current Charge


@<TRIPOS>ATOM
      1 N           -1.9700     2.5210     0.5050 n8         1 5CA      -1.020200
      2 CA          -2.2260     2.1110    -0.9290 c3         1 5CA       0.092500
      3 CB          -1.0770     2.5970    -1.8500 c3         1 5CA       0.031600
      4 SG          -0.7600     4.4280    -1.7780 sh         1 5CA      -0.429800
      5 C           -2.5350     0.5890    -1.1670 c          1 5CA       0.630100
      6 O           -2.5460     0.0820    -2.2790 o          1 5CA      -0.511100
      7 N3S         -2.7600    -0.1160    -0.0310 ns         1 5CA      -0.620300
      8 S           -3.2270    -1.6980     0.1080 s6         1 5CA       1.437500
      9 O1S         -3.4080    -1.9850     1.5340 o          1 5CA      -0.533500
     10 O2S         -4.2940    -1.9600    -0.8630 o          1 5CA      -0.533500
     11 O5          -1.8430    -2.4030    -0.4280 os         1 5CA      -0.541700
     12 C5          -0.9130    -2.8650     0.5660 c3         1 5CA       0.182600
     13 C4           0.4140    -3.2460    -0.1510 c5         1 5CA       0.171300
     14 O4           1.0780    -2.0560    -0.6520 os         1 5CA      -0.422000
     15 C3           1.4870    -3.8960     0.7800 c5         1 5CA       0.107300
     16 O3           2.5440    -4.5440     0.0630 oh         1 5CA      -0.698000
     17 C2           2.0380    -2.6340     1.5040 c5         1 5CA       0.081300
     18 O2           3.3590    -2.8880     2.0280 oh         1 5CA      -0.690000
     19 C1           1.9990    -1.5590     0.3490 c5         1 5CA       0.314300
     20 N9           1.6420    -0.1790     0.6920 na         1 5CA      -0.285300
     21 C8           0.8240     0.2370     1.7500 cc         1 5CA       0.419700
     22 N7           0.7180     1.5780     1.7940 nd         1 5CA      -0.567100
     23 C7           1.5270     1.9980     0.7360 ca         1 5CA      -0.098600
     24 C6           1.8340     3.3040     0.3090 ca         1 5CA       0.449900
     25 N6           1.3310     4.4080     0.9210 nv         1 5CA      -1.065900
     26 N1           2.6470     3.5210    -0.7350 nb         1 5CA      -0.300000
     27 C10          3.1430     2.4150    -1.3420 ca         1 5CA       0.184900
     28 N3           2.9060     1.1260    -0.9960 nb         1 5CA      -0.215000
     29 C9           2.0870     0.9460     0.0580 ca         1 5CA       0.146500
     30 H           -1.0440     2.1790     0.8120 hn         1 5CA       0.426000
     31 HN2         -1.8490     3.5400     0.5350 hn         1 5CA       0.426000
     32 HA          -3.1420     2.6290    -1.2440 h1         1 5CA       0.075700
     33 HB1         -0.1500     2.0650    -1.5990 h1         1 5CA       0.091700
     34 HB2         -1.3260     2.3460    -2.8900 h1         1 5CA       0.091700
     35 HG          -0.0250     4.4140    -0.6330 hs         1 5CA       0.206800
     36 H3S         -2.7520     0.3700     0.8490 hn         1 5CA       0.347500
     37 H5'1        -0.7170    -2.0900     1.3170 h1         1 5CA       0.053700
     38 H5'2        -1.3080    -3.7500     1.0830 h1         1 5CA       0.053700
     39 H4           0.1670    -3.9080    -0.9910 h1         1 5CA       0.112700
     40 H3           1.0290    -4.5960     1.4930 h1         1 5CA       0.053700
     41 H3T          3.3510    -4.2980     0.5840 ho         1 5CA       0.525000
     42 H2           1.3600    -2.3620     2.3240 h1         1 5CA       0.049700
     43 HO'2         3.5630    -2.1870     2.6940 ho         1 5CA       0.515000
     44 H1           2.9960    -1.4980    -0.1070 h2         1 5CA       0.125700
     45 H8           0.3410    -0.4540     2.4300 h5         1 5CA       0.072800
     46 H61          0.9560     4.2570     1.8540 hn         1 5CA       0.504000
     47 H62          1.8370     5.2800     0.7940 hn         1 5CA       0.504000
     48 H7           3.8040     2.5780    -2.1920 h5         1 5CA       0.047100
@<TRIPOS>BOND
     1     1     2 1   
     2     1    30 1   
     3     1    31 1   
     4     2     3 1   
     5     2     5 1   
     6     2    32 1   
     7     3     4 1   
     8     3    33 1   
     9     3    34 1   
    10     4    35 1   
    11     5     6 2   
    12     5     7 1   
    13     7     8 1   
    14     7    36 1   
    15     8     9 2   
    16     8    10 2   
    17     8    11 1   
    18    11    12 1   
    19    12    13 1   
    20    12    37 1   
    21    12    38 1   
    22    13    14 1   
    23    13    15 1   
    24    13    39 1   
    25    14    19 1   
    26    15    16 1   
    27    15    17 1   
    28    15    40 1   
    29    16    41 1   
    30    17    18 1   
    31    17    19 1   
    32    17    42 1   
    33    18    43 1   
    34    19    20 1   
    35    19    44 1   
    36    20    21 1   
    37    20    29 1   
    38    21    22 2   
    39    21    45 1   
    40    22    23 1   
    41    23    24 ar  
    42    23    29 ar  
    43    24    25 1   
    44    24    26 ar  
    45    25    46 1   
    46    25    47 1   
    47    26    27 ar  
    48    27    28 ar  
    49    27    48 1   
    50    28    29 ar  
@<TRIPOS>SUBSTRUCTURE
     1 5CA         1 TEMP              0 ****  ****    0 ROOT
