@<TRIPOS>MOLECULE
5CA
   48    50     1     0     0
SMALL
abcg2


@<TRIPOS>ATOM
      1 N           -1.6450     2.2210     1.1450 n8         1 5CA      -1.020200
      2 CA          -2.9050     1.8710     0.5270 c3         1 5CA       0.092500
      3 CB          -3.5990     2.9820    -0.2680 c3         1 5CA       0.031600
      4 SG          -4.0220     4.4130     0.7650 sh         1 5CA      -0.429800
      5 C           -2.6330     0.7040    -0.4110 c          1 5CA       0.630100
      6 O           -1.9090     0.7860    -1.3730 o          1 5CA      -0.511100
      7 N3S         -3.2690    -0.4660    -0.0630 ns         1 5CA      -0.620300
      8 S           -3.2210    -1.8600    -0.9740 s6         1 5CA       1.437500
      9 O1S         -4.0060    -2.8120    -0.2310 o          1 5CA      -0.533500
     10 O2S         -3.5010    -1.5710    -2.3520 o          1 5CA      -0.533500
     11 O5          -1.6900    -2.2590    -0.9550 os         1 5CA      -0.541700
     12 C5          -1.0800    -2.6580     0.2880 c3         1 5CA       0.182600
     13 C4           0.3420    -3.0560    -0.0410 c5         1 5CA       0.171300
     14 O4           1.0370    -1.9740    -0.6520 os         1 5CA      -0.422000
     15 C3           1.1270    -3.4150     1.2170 c5         1 5CA       0.107300
     16 O3           2.1070    -4.3550     0.8680 oh         1 5CA      -0.698000
     17 C2           1.7590    -2.0640     1.5650 c5         1 5CA       0.081300
     18 O2           2.9220    -2.1360     2.3290 oh         1 5CA      -0.690000
     19 C1           2.0850    -1.5310     0.1710 c5         1 5CA       0.314300
     20 N9           2.1830    -0.1010     0.0920 na         1 5CA      -0.285300
     21 C8           1.2240     0.8160     0.4310 cc         1 5CA       0.419700
     22 N7           1.5790     2.0430     0.1970 nd         1 5CA      -0.567100
     23 C7           2.8420     1.9400    -0.3300 ca         1 5CA      -0.098600
     24 C6           3.7720     2.8940    -0.7830 ca         1 5CA       0.449900
     25 N6           3.5250     4.2050    -0.7690 nv         1 5CA      -1.065900
     26 N1           4.9430     2.4520    -1.2530 nb         1 5CA      -0.300000
     27 C10          5.1810     1.1430    -1.2750 ca         1 5CA       0.184900
     28 N3           4.3940     0.1590    -0.8760 nb         1 5CA      -0.215000
     29 C9           3.2350     0.6140    -0.4100 ca         1 5CA       0.146500
     30 H           -1.0260     2.6840     0.4890 hn         1 5CA       0.426000
     31 HN2         -1.8050     2.8630     1.9110 hn         1 5CA       0.426000
     32 HA          -3.5830     1.5530     1.3220 h1         1 5CA       0.075700
     33 HB1         -2.9860     3.3080    -1.1080 h1         1 5CA       0.091700
     34 HB2         -4.5480     2.6240    -0.6730 h1         1 5CA       0.091700
     35 HG          -2.7970     4.9430     0.8510 hs         1 5CA       0.206800
     36 H3S         -3.8450    -0.5080     0.7700 hn         1 5CA       0.347500
     37 H5'1        -1.1210    -1.8280     1.0000 h1         1 5CA       0.053700
     38 H5'2        -1.6100    -3.5120     0.7120 h1         1 5CA       0.053700
     39 H4           0.3200    -3.9030    -0.7340 h1         1 5CA       0.112700
     40 H3           0.4770    -3.7850     2.0210 h1         1 5CA       0.053700
     41 H3T          2.7810    -4.3550     1.5570 ho         1 5CA       0.525000
     42 H2           1.0020    -1.4270     2.0400 h1         1 5CA       0.049700
     43 HO'2         2.6830    -2.1790     3.2610 ho         1 5CA       0.515000
     44 H1           3.0510    -1.9220    -0.1660 h2         1 5CA       0.125700
     45 H8           0.2710     0.5310     0.8520 h5         1 5CA       0.072800
     46 H61          2.6820     4.5690    -0.3630 hn         1 5CA       0.504000
     47 H62          4.2400     4.8570    -1.0430 hn         1 5CA       0.504000
     48 H7           6.1470     0.8510    -1.6710 h5         1 5CA       0.047100
@<TRIPOS>BOND
     1     1     2 1   
     2     1    30 1   
     3     1    31 1   
     4     2     3 1   
     5     2     5 1   
     6     2    32 1   
     7     3     4 1   
     8     3    33 1   
     9     3    34 1   
    10     4    35 1   
    11     5     6 2   
    12     5     7 1   
    13     7     8 1   
    14     7    36 1   
    15     8     9 2   
    16     8    10 2   
    17     8    11 1   
    18    11    12 1   
    19    12    13 1   
    20    12    37 1   
    21    12    38 1   
    22    13    14 1   
    23    13    15 1   
    24    13    39 1   
    25    14    19 1   
    26    15    16 1   
    27    15    17 1   
    28    15    40 1   
    29    16    41 1   
    30    17    18 1   
    31    17    19 1   
    32    17    42 1   
    33    18    43 1   
    34    19    20 1   
    35    19    44 1   
    36    20    21 1   
    37    20    29 1   
    38    21    22 2   
    39    21    45 1   
    40    22    23 1   
    41    23    24 ar  
    42    23    29 ar  
    43    24    25 1   
    44    24    26 ar  
    45    25    46 1   
    46    25    47 1   
    47    26    27 ar  
    48    27    28 ar  
    49    27    48 1   
    50    28    29 ar  
@<TRIPOS>SUBSTRUCTURE
     1 5CA         1 TEMP              0 ****  ****    0 ROOT
