@<TRIPOS>MOLECULE
5CB
   55    58     1     0     0
SMALL
No Charge or Current Charge


@<TRIPOS>ATOM
      1 O1           1.6830     0.7180     1.1060 oh         1 5CB      -0.629000
      2 Cl2         -7.0170    -2.6990     0.5990 cl         1 5CB      -0.195000
      3 Cl3          0.1460    -3.7350    -0.7130 cl         1 5CB      -0.262000
      4 C4          -7.9320    -0.4390    -0.6690 ca         1 5CB      -0.095000
      5 C5          -7.8340     0.9020    -1.0910 ca         1 5CB      -0.074000
      6 C6          -6.8880    -1.0240     0.0780 ca         1 5CB       0.115000
      7 C7          -6.6850     1.6340    -0.7520 ca         1 5CB      -0.168000
      8 C8          -5.7430    -0.2740     0.4100 ca         1 5CB      -0.064000
      9 C9          -5.6650     1.0620    -0.0200 ca         1 5CB      -0.057800
     10 S10         -6.3830     3.3320    -1.1970 ss         1 5CB       0.075400
     11 C11         -4.8120     3.2450    -0.3540 cc         1 5CB      -0.153400
     12 C12         -4.5840     2.0010     0.2080 cd         1 5CB      -0.101400
     13 C13         -3.3310     1.6600     0.9730 c3         1 5CB       0.162200
     14 N14         -2.4520     0.8030     0.1810 ns         1 5CB      -0.520900
     15 C15         -1.3060     0.2130     0.6640 c          1 5CB       0.608100
     16 C16         -0.5290    -0.6640    -0.3600 c3         1 5CB       0.081800
     17 C17          1.3030    -2.3010    -0.8670 c6         1 5CB       0.367500
     18 N18          0.8600    -1.1560    -0.0070 n3         1 5CB      -0.725600
     19 C19          2.7450    -2.8050    -0.5170 c6         1 5CB       0.131800
     20 C20          1.8960    -0.0800    -0.0510 c6         1 5CB       0.332200
     21 N21          3.7910    -1.7560    -0.3700 n2         1 5CB      -0.670900
     22 C22          3.4100    -0.5440    -0.1540 c2         1 5CB       0.635200
     23 N23          4.4100     0.4090     0.0010 nu         1 5CB      -0.900400
     24 C24          5.8560     0.1370     0.0050 c3         1 5CB       0.223800
     25 C25          6.6400     1.4450     0.1880 c3         1 5CB      -0.141700
     26 C26          8.8400     1.1760    -1.0640 ca         1 5CB      -0.156000
     27 C27          8.1380     1.2010     0.1570 ca         1 5CB       0.349300
     28 C28         10.2250     0.9410    -1.0550 ca         1 5CB      -0.071000
     29 N29          8.7420     1.0040     1.3510 nb         1 5CB      -0.671000
     30 C30         10.8510     0.7380     0.1850 ca         1 5CB      -0.165000
     31 C31         10.0770     0.7770     1.3580 ca         1 5CB       0.342900
     32 O32         -0.9360     0.3760     1.8210 o          1 5CB      -0.559100
     33 H1           0.8100     0.4100     1.4460 ho         1 5CB       0.446000
     34 H5          -8.6340     1.3600    -1.6690 ha         1 5CB       0.125000
     35 H8          -4.9410    -0.7290     0.9840 ha         1 5CB       0.152000
     36 H11         -4.1760     4.1220    -0.3410 h4         1 5CB       0.216000
     37 H131        -3.5990     1.1450     1.9060 h1         1 5CB       0.068200
     38 H132        -2.7930     2.5800     1.2350 h1         1 5CB       0.068200
     39 H14         -2.6990     0.6240    -0.7850 hn         1 5CB       0.304500
     40 H161        -0.4910    -0.0980    -1.3000 h1         1 5CB       0.056200
     41 H162        -1.2040    -1.5070    -0.5480 h1         1 5CB       0.056200
     42 H117         1.2560    -2.0120    -1.9270 h2         1 5CB       0.050700
     43 H19          3.0590    -3.5020    -1.3070 h1         1 5CB       0.079700
     44 H191         2.7010    -3.3790     0.4190 h1         1 5CB       0.079700
     45 H220         1.6930     0.5320    -0.9420 h2         1 5CB       0.016700
     46 H23          4.0880     1.2770     0.4260 hn         1 5CB       0.486000
     47 H241         6.1110    -0.5560     0.8200 h1         1 5CB       0.061700
     48 H242         6.1550    -0.3340    -0.9420 h1         1 5CB       0.061700
     49 H251         6.3640     2.1470    -0.6080 hc         1 5CB       0.055700
     50 H252         6.3500     1.9150     1.1350 hc         1 5CB       0.055700
     51 H26          8.3160     1.3360    -2.0020 ha         1 5CB       0.123000
     52 H28         10.7950     0.9150    -1.9820 ha         1 5CB       0.119000
     53 H30         11.9190     0.5520     0.2450 ha         1 5CB       0.124000
     54 H31         10.5390     0.6220     2.3330 h4         1 5CB       0.020100
     55 H4          -8.8120    -1.0250    -0.9210 ha         1 5CB       0.131000
@<TRIPOS>BOND
     1     1    20 1   
     2     1    33 1   
     3     2     6 1   
     4     3    17 1   
     5     4     5 ar  
     6     4     6 ar  
     7     4    55 1   
     8     5     7 ar  
     9     5    34 1   
    10     6     8 ar  
    11     7     9 ar  
    12     7    10 1   
    13     8     9 ar  
    14     8    35 1   
    15     9    12 1   
    16    10    11 1   
    17    11    12 2   
    18    11    36 1   
    19    12    13 1   
    20    13    14 1   
    21    13    37 1   
    22    13    38 1   
    23    14    15 1   
    24    14    39 1   
    25    15    16 1   
    26    15    32 2   
    27    16    18 1   
    28    16    40 1   
    29    16    41 1   
    30    17    18 1   
    31    17    19 1   
    32    17    42 1   
    33    18    20 1   
    34    19    21 1   
    35    19    43 1   
    36    19    44 1   
    37    20    22 1   
    38    20    45 1   
    39    21    22 2   
    40    22    23 1   
    41    23    24 1   
    42    23    46 1   
    43    24    25 1   
    44    24    47 1   
    45    24    48 1   
    46    25    27 1   
    47    25    49 1   
    48    25    50 1   
    49    26    27 ar  
    50    26    28 ar  
    51    26    51 1   
    52    27    29 ar  
    53    28    30 ar  
    54    28    52 1   
    55    29    31 ar  
    56    30    31 ar  
    57    30    53 1   
    58    31    54 1   
@<TRIPOS>SUBSTRUCTURE
     1 5CB         1 TEMP              0 ****  ****    0 ROOT
