@<TRIPOS>MOLECULE
5CB
   55    58     1     0     0
SMALL
abcg2


@<TRIPOS>ATOM
      1 O1           1.3980     0.9800     0.4010 oh         1 5CB      -0.629000
      2 CL2         -5.7060    -2.9140     0.7860 cl         1 5CB      -0.195000
      3 CL3         -0.0810    -3.5540    -1.0500 cl         1 5CB      -0.262000
      4 C4          -7.1530    -0.8530    -0.1840 ca         1 5CB      -0.095000
      5 C5          -7.3590     0.4700    -0.5150 ca         1 5CB      -0.074000
      6 C6          -5.9310    -1.2450     0.3720 ca         1 5CB       0.115000
      7 C7          -6.3330     1.3830    -0.2910 ca         1 5CB      -0.168000
      8 C8          -4.9060    -0.3540     0.6000 ca         1 5CB      -0.064000
      9 C9          -5.1010     0.9890     0.2590 ca         1 5CB      -0.057800
     10 S10         -6.3630     3.0840    -0.6170 ss         1 5CB       0.075400
     11 C11         -4.7480     3.2560    -0.0300 cc         1 5CB      -0.153400
     12 C12         -4.1930     2.0990     0.3980 cd         1 5CB      -0.101400
     13 C13         -2.7930     1.9830     0.9190 c3         1 5CB       0.162200
     14 N14         -1.9430     1.2550     0.0020 ns         1 5CB      -0.520900
     15 C15         -1.3270     0.0950     0.2890 c          1 5CB       0.608100
     16 C16         -0.5920    -0.5280    -0.8870 c3         1 5CB       0.081800
     17 C17          1.1470    -2.2350    -1.1780 c6         1 5CB       0.367500
     18 N18          0.6960    -1.0560    -0.4820 n3         1 5CB      -0.725600
     19 C19          2.4210    -2.7520    -0.5330 c6         1 5CB       0.131800
     20 C20          1.6920    -0.0010    -0.5510 c6         1 5CB       0.332200
     21 N21          3.4400    -1.7590    -0.3420 n2         1 5CB      -0.670900
     22 C22          3.1000    -0.5330    -0.3190 c2         1 5CB       0.635200
     23 N23          4.0220     0.4500    -0.1790 nu         1 5CB      -0.900400
     24 C24          5.4100     0.1580     0.0810 c3         1 5CB       0.223800
     25 C25          6.2620     1.4020    -0.1640 c3         1 5CB      -0.141700
     26 C26          8.6300     0.9100    -0.8710 ca         1 5CB      -0.156000
     27 C27          7.7060     1.1350     0.1450 ca         1 5CB       0.349300
     28 C28          9.9470     0.6390    -0.5370 ca         1 5CB      -0.071000
     29 N29          8.0480     1.0950     1.4320 nb         1 5CB      -0.671000
     30 C30         10.3010     0.5990     0.8030 ca         1 5CB      -0.165000
     31 C31          9.3110     0.8340     1.7450 ca         1 5CB       0.342900
     32 O32         -1.3990    -0.4630     1.3720 o          1 5CB      -0.559100
     33 H1           1.0820     1.7730    -0.0410 ho         1 5CB       0.446000
     34 H5          -8.3040     0.7830    -0.9410 ha         1 5CB       0.125000
     35 H8          -3.9780    -0.6890     1.0440 ha         1 5CB       0.152000
     36 H11         -4.2830     4.2310    -0.0360 h4         1 5CB       0.216000
     37 H131        -2.7800     1.4660     1.8770 h1         1 5CB       0.068200
     38 H132        -2.3810     2.9800     1.0890 h1         1 5CB       0.068200
     39 H14         -1.8180     1.6510    -0.9160 hn         1 5CB       0.304500
     40 H161        -0.5030     0.1780    -1.7260 h1         1 5CB       0.056200
     41 H162        -1.2300    -1.3390    -1.2410 h1         1 5CB       0.056200
     42 H117         1.2750    -2.0800    -2.2560 h2         1 5CB       0.050700
     43 H19          2.8140    -3.5610    -1.1530 h1         1 5CB       0.079700
     44 H191         2.1630    -3.1980     0.4330 h1         1 5CB       0.079700
     45 H220         1.6950     0.4530    -1.5580 h2         1 5CB       0.016700
     46 H23          3.6840     1.3460     0.1360 hn         1 5CB       0.486000
     47 H241         5.5660    -0.2000     1.1050 h1         1 5CB       0.061700
     48 H242         5.7270    -0.6470    -0.5840 h1         1 5CB       0.061700
     49 H251         6.1510     1.7180    -1.2030 hc         1 5CB       0.055700
     50 H252         5.9040     2.2200     0.4670 hc         1 5CB       0.055700
     51 H26          8.3180     0.9520    -1.9060 ha         1 5CB       0.123000
     52 H28         10.6850     0.4650    -1.3100 ha         1 5CB       0.119000
     53 H30         11.3160     0.3930     1.1150 ha         1 5CB       0.124000
     54 H31          9.5500     0.8120     2.8030 h4         1 5CB       0.020100
     55 H4          -7.9330    -1.5830    -0.3510 ha         1 5CB       0.131000
@<TRIPOS>BOND
     1     1    20 1   
     2     1    33 1   
     3     2     6 1   
     4     3    17 1   
     5     4     5 ar  
     6     4     6 ar  
     7     4    55 1   
     8     5     7 ar  
     9     5    34 1   
    10     6     8 ar  
    11     7     9 ar  
    12     7    10 1   
    13     8     9 ar  
    14     8    35 1   
    15     9    12 1   
    16    10    11 1   
    17    11    12 2   
    18    11    36 1   
    19    12    13 1   
    20    13    14 1   
    21    13    37 1   
    22    13    38 1   
    23    14    15 1   
    24    14    39 1   
    25    15    16 1   
    26    15    32 2   
    27    16    18 1   
    28    16    40 1   
    29    16    41 1   
    30    17    18 1   
    31    17    19 1   
    32    17    42 1   
    33    18    20 1   
    34    19    21 1   
    35    19    43 1   
    36    19    44 1   
    37    20    22 1   
    38    20    45 1   
    39    21    22 2   
    40    22    23 1   
    41    23    24 1   
    42    23    46 1   
    43    24    25 1   
    44    24    47 1   
    45    24    48 1   
    46    25    27 1   
    47    25    49 1   
    48    25    50 1   
    49    26    27 ar  
    50    26    28 ar  
    51    26    51 1   
    52    27    29 ar  
    53    28    30 ar  
    54    28    52 1   
    55    29    31 ar  
    56    30    31 ar  
    57    30    53 1   
    58    31    54 1   
@<TRIPOS>SUBSTRUCTURE
     1 5CB         1 TEMP              0 ****  ****    0 ROOT
