@<TRIPOS>MOLECULE
5CC
   56    59     1     0     0
SMALL
No Charge or Current Charge


@<TRIPOS>ATOM
      1 C01         -1.6090     3.1600    -0.9250 c3         1 5CC      -0.086100
      2 C02         -1.3660     2.6010     0.4920 c3         1 5CC      -0.036200
      3 C03         -1.0560     1.1030     0.5180 ce         1 5CC      -0.046400
      4 C04          0.3490     0.7800     0.9090 ca         1 5CC      -0.015800
      5 C05          0.5950    -0.0670     2.0060 ca         1 5CC      -0.127000
      6 C06          1.9120    -0.3770     2.3820 ca         1 5CC      -0.080000
      7 C07          2.9910     0.1550     1.6570 ca         1 5CC      -0.159000
      8 C08          2.7580     0.9900     0.5500 ca         1 5CC       0.317000
      9 N09          3.8100     1.5460    -0.1820 nu         1 5CC      -0.999000
     10 C10          5.1350     1.1660    -0.4010 ca         1 5CC       0.325000
     11 C11          5.5470    -0.1750    -0.2930 ca         1 5CC      -0.171500
     12 C12          6.8860    -0.5300    -0.5370 ca         1 5CC      -0.074500
     13 C13          7.8170     0.4580    -0.9000 ca         1 5CC      -0.149000
     14 C14          7.4080     1.7960    -1.0270 ca         1 5CC      -0.074500
     15 C15          6.0680     2.1450    -0.7830 ca         1 5CC      -0.171500
     16 C16          1.4390     1.3110     0.1920 ca         1 5CC      -0.169000
     17 C17         -2.0060     0.1520     0.2300 cf         1 5CC       0.011600
     18 C18         -3.4230     0.4410    -0.0900 ca         1 5CC      -0.089800
     19 C19         -4.2580     1.0820     0.8470 ca         1 5CC      -0.057000
     20 C20         -5.6050     1.3440     0.5370 ca         1 5CC      -0.179250
     21 C21         -6.1270     0.9580    -0.7070 ca         1 5CC       0.140600
     22 O22         -7.4300     1.2070    -1.0140 oh         1 5CC      -0.533100
     23 C23         -5.3070     0.3070    -1.6390 ca         1 5CC      -0.179250
     24 C24         -3.9600     0.0440    -1.3320 ca         1 5CC      -0.057000
     25 C25         -1.7350    -1.3060     0.1390 ca         1 5CC      -0.089800
     26 C26         -2.6290    -2.2380     0.7110 ca         1 5CC      -0.057000
     27 C27         -2.3750    -3.6180     0.6220 ca         1 5CC      -0.179250
     28 C28         -1.2300    -4.0810    -0.0410 ca         1 5CC       0.140600
     29 O29         -0.9930    -5.4200    -0.1210 oh         1 5CC      -0.533100
     30 C30         -0.3390    -3.1670    -0.6210 ca         1 5CC      -0.179250
     31 C31         -0.5910    -1.7870    -0.5340 ca         1 5CC      -0.057000
     32 H1          -1.7740     4.2430    -0.8840 hc         1 5CC       0.035033
     33 H2          -0.7460     2.9700    -1.5730 hc         1 5CC       0.035033
     34 H3          -2.4910     2.7010    -1.3850 hc         1 5CC       0.035033
     35 H4          -0.5400     3.1670     0.9410 hc         1 5CC       0.049200
     36 H5          -2.2340     2.8330     1.1180 hc         1 5CC       0.049200
     37 H7          -0.2380    -0.4810     2.5700 ha         1 5CC       0.122000
     38 H8           2.0950    -1.0240     3.2370 ha         1 5CC       0.113000
     39 H9           4.0050    -0.0700     1.9710 ha         1 5CC       0.124000
     40 H10          3.5550     2.4090    -0.6620 hn         1 5CC       0.491000
     41 H11          4.8320    -0.9500    -0.0390 ha         1 5CC       0.116000
     42 H12          7.1990    -1.5680    -0.4510 ha         1 5CC       0.110500
     43 H13          8.8530     0.1850    -1.0900 ha         1 5CC       0.114000
     44 H14          8.1270     2.5600    -1.3150 ha         1 5CC       0.110500
     45 H15          5.7590     3.1810    -0.8820 ha         1 5CC       0.116000
     46 H16          1.2590     1.9600    -0.6600 ha         1 5CC       0.113000
     47 H18         -3.8680     1.3650     1.8210 ha         1 5CC       0.118750
     48 H19         -6.2360     1.8400     1.2710 ha         1 5CC       0.120750
     49 H20         -7.8460     1.6630    -0.2510 ho         1 5CC       0.464000
     50 H21         -5.7120     0.0040    -2.6010 ha         1 5CC       0.120750
     51 H22         -3.3300    -0.4610    -2.0610 ha         1 5CC       0.118750
     52 H23         -3.5180    -1.8950     1.2350 ha         1 5CC       0.118750
     53 H24         -3.0670    -4.3260     1.0700 ha         1 5CC       0.120750
     54 H25         -0.1570    -5.5570    -0.6160 ho         1 5CC       0.464000
     55 H26          0.5480    -3.5160    -1.1430 ha         1 5CC       0.120750
     56 H27          0.1000    -1.0910    -1.0040 ha         1 5CC       0.118750
@<TRIPOS>BOND
     1     1     2 1   
     2     1    32 1   
     3     1    33 1   
     4     1    34 1   
     5     2     3 1   
     6     2    35 1   
     7     2    36 1   
     8     3     4 1   
     9     3    17 2   
    10     4     5 ar  
    11     4    16 ar  
    12     5     6 ar  
    13     5    37 1   
    14     6     7 ar  
    15     6    38 1   
    16     7     8 ar  
    17     7    39 1   
    18     8     9 1   
    19     8    16 ar  
    20     9    10 1   
    21     9    40 1   
    22    10    11 ar  
    23    10    15 ar  
    24    11    12 ar  
    25    11    41 1   
    26    12    13 ar  
    27    12    42 1   
    28    13    14 ar  
    29    13    43 1   
    30    14    15 ar  
    31    14    44 1   
    32    15    45 1   
    33    16    46 1   
    34    17    18 1   
    35    17    25 1   
    36    18    19 ar  
    37    18    24 ar  
    38    19    20 ar  
    39    19    47 1   
    40    20    21 ar  
    41    20    48 1   
    42    21    22 1   
    43    21    23 ar  
    44    22    49 1   
    45    23    24 ar  
    46    23    50 1   
    47    24    51 1   
    48    25    26 ar  
    49    25    31 ar  
    50    26    27 ar  
    51    26    52 1   
    52    27    28 ar  
    53    27    53 1   
    54    28    29 1   
    55    28    30 ar  
    56    29    54 1   
    57    30    31 ar  
    58    30    55 1   
    59    31    56 1   
@<TRIPOS>SUBSTRUCTURE
     1 5CC         1 TEMP              0 ****  ****    0 ROOT
