@<TRIPOS>MOLECULE
5CC
   56    59     1     0     0
SMALL
bcc


@<TRIPOS>ATOM
      1 C01         -1.4200     2.9850    -1.2360 c3         1 5CC      -0.086100
      2 C02         -1.3560     2.5660     0.2340 c3         1 5CC      -0.036200
      3 C03         -1.0600     1.0890     0.4040 ce         1 5CC      -0.046400
      4 C04          0.3240     0.7440     0.8070 ca         1 5CC      -0.015800
      5 C05          0.5530    -0.1230     1.8770 ca         1 5CC      -0.145000
      6 C06          1.8510    -0.4050     2.2710 ca         1 5CC      -0.098000
      7 C07          2.9390     0.1570     1.6210 ca         1 5CC      -0.177000
      8 C08          2.7290     1.0210     0.5430 ca         1 5CC       0.178600
      9 N09          3.7650     1.6490    -0.1310 nu         1 5CC      -0.667000
     10 C10          5.0700     1.2190    -0.3050 ca         1 5CC       0.186600
     11 C11          5.4520    -0.1230    -0.2050 ca         1 5CC      -0.189500
     12 C12          6.7740    -0.4900    -0.4150 ca         1 5CC      -0.092500
     13 C13          7.7380     0.4540    -0.7420 ca         1 5CC      -0.167000
     14 C14          7.3560     1.7850    -0.8630 ca         1 5CC      -0.092500
     15 C15          6.0440     2.1670    -0.6420 ca         1 5CC      -0.189500
     16 C16          1.4170     1.3120     0.1590 ca         1 5CC      -0.187000
     17 C17         -1.9900     0.1410     0.1770 cf         1 5CC       0.011600
     18 C18         -3.4180     0.4780    -0.0450 ca         1 5CC      -0.089800
     19 C19         -4.1880     1.0710     0.9510 ca         1 5CC      -0.075000
     20 C20         -5.5350     1.3440     0.7600 ca         1 5CC      -0.197250
     21 C21         -6.1460     1.0200    -0.4470 ca         1 5CC       0.140600
     22 O22         -7.4500     1.2600    -0.6910 oh         1 5CC      -0.494100
     23 C23         -5.3930     0.4170    -1.4540 ca         1 5CC      -0.197250
     24 C24         -4.0520     0.1460    -1.2430 ca         1 5CC      -0.075000
     25 C25         -1.6810    -1.3050     0.0880 ca         1 5CC      -0.089800
     26 C26         -2.5010    -2.2450     0.7170 ca         1 5CC      -0.075000
     27 C27         -2.2410    -3.6020     0.6410 ca         1 5CC      -0.197250
     28 C28         -1.1520    -4.0610    -0.0960 ca         1 5CC       0.140600
     29 O29         -0.9390    -5.3910    -0.1480 oh         1 5CC      -0.494100
     30 C30         -0.3400    -3.1410    -0.7550 ca         1 5CC      -0.197250
     31 C31         -0.6070    -1.7850    -0.6590 ca         1 5CC      -0.075000
     32 H1          -1.6080     4.0550    -1.3240 hc         1 5CC       0.035033
     33 H2          -0.4890     2.7660    -1.7590 hc         1 5CC       0.035033
     34 H3          -2.2210     2.4600    -1.7560 hc         1 5CC       0.035033
     35 H4          -0.5890     3.1490     0.7450 hc         1 5CC       0.049200
     36 H5          -2.3000     2.8270     0.7110 hc         1 5CC       0.049200
     37 H7          -0.2820    -0.5640     2.4040 ha         1 5CC       0.140000
     38 H8           2.0240    -1.0600     3.1150 ha         1 5CC       0.131000
     39 H9           3.9390    -0.0550     1.9740 ha         1 5CC       0.142000
     40 H10          3.5230     2.5070    -0.5990 hn         1 5CC       0.435800
     41 H11          4.7210    -0.8880     0.0150 ha         1 5CC       0.134000
     42 H12          7.0450    -1.5350    -0.3330 ha         1 5CC       0.128500
     43 H13          8.7660     0.1590    -0.9060 ha         1 5CC       0.132000
     44 H14          8.0890     2.5390    -1.1230 ha         1 5CC       0.128500
     45 H15          5.7640     3.2110    -0.7280 ha         1 5CC       0.134000
     46 H16          1.2610     1.9870    -0.6750 ha         1 5CC       0.131000
     47 H18         -3.7340     1.3170     1.9040 ha         1 5CC       0.136750
     48 H19         -6.1080     1.8030     1.5580 ha         1 5CC       0.138750
     49 H20         -7.8710     1.6410     0.0880 ho         1 5CC       0.425000
     50 H21         -5.8620     0.1560    -2.3940 ha         1 5CC       0.138750
     51 H22         -3.4840    -0.3360    -2.0310 ha         1 5CC       0.136750
     52 H23         -3.3590    -1.9100     1.2870 ha         1 5CC       0.136750
     53 H24         -2.8850    -4.3100     1.1490 ha         1 5CC       0.138750
     54 H25         -0.1680    -5.5850    -0.6930 ho         1 5CC       0.425000
     55 H26          0.5010    -3.4820    -1.3500 ha         1 5CC       0.138750
     56 H27          0.0330    -1.0900    -1.1880 ha         1 5CC       0.136750
@<TRIPOS>BOND
     1     1     2 1   
     2     1    32 1   
     3     1    33 1   
     4     1    34 1   
     5     2     3 1   
     6     2    35 1   
     7     2    36 1   
     8     3     4 1   
     9     3    17 2   
    10     4     5 ar  
    11     4    16 ar  
    12     5     6 ar  
    13     5    37 1   
    14     6     7 ar  
    15     6    38 1   
    16     7     8 ar  
    17     7    39 1   
    18     8     9 1   
    19     8    16 ar  
    20     9    10 1   
    21     9    40 1   
    22    10    11 ar  
    23    10    15 ar  
    24    11    12 ar  
    25    11    41 1   
    26    12    13 ar  
    27    12    42 1   
    28    13    14 ar  
    29    13    43 1   
    30    14    15 ar  
    31    14    44 1   
    32    15    45 1   
    33    16    46 1   
    34    17    18 1   
    35    17    25 1   
    36    18    19 ar  
    37    18    24 ar  
    38    19    20 ar  
    39    19    47 1   
    40    20    21 ar  
    41    20    48 1   
    42    21    22 1   
    43    21    23 ar  
    44    22    49 1   
    45    23    24 ar  
    46    23    50 1   
    47    24    51 1   
    48    25    26 ar  
    49    25    31 ar  
    50    26    27 ar  
    51    26    52 1   
    52    27    28 ar  
    53    27    53 1   
    54    28    29 1   
    55    28    30 ar  
    56    29    54 1   
    57    30    31 ar  
    58    30    55 1   
    59    31    56 1   
@<TRIPOS>SUBSTRUCTURE
     1 5CC         1 TEMP              0 ****  ****    0 ROOT
