@<TRIPOS>MOLECULE
5CD
   31    33     1     0     0
SMALL
bcc


@<TRIPOS>ATOM
      1 N9           0.5230     0.1510    -0.3470 na         1 5CD      -0.283000
      2 C8           0.4390     1.4010     0.2020 cc         1 5CD       0.412700
      3 N7           1.5930     1.8830     0.5640 nd         1 5CD      -0.555100
      4 C5           2.4910     0.9030     0.2350 ca         1 5CD      -0.229200
      5 C4           1.8460    -0.1820    -0.3360 ca         1 5CD       0.448800
      6 N3           2.4130    -1.3040    -0.7750 nb         1 5CD      -0.748000
      7 C2           3.7230    -1.2840    -0.6080 ca         1 5CD       0.708900
      8 N1           4.4750    -0.3220    -0.0790 nb         1 5CD      -0.828000
      9 C6           3.8890     0.7990     0.3590 ca         1 5CD       0.779200
     10 N6           4.6400     1.7600     0.9010 nv         1 5CD      -0.952500
     11 O2          -1.4010    -2.8880    -0.6860 oh         1 5CD      -0.577800
     12 C10         -0.8670    -1.8460     0.0820 c5         1 5CD       0.080100
     13 C3          -1.9470    -1.2000     0.9580 c5         1 5CD       0.065100
     14 O3          -2.8150    -2.1120     1.5630 oh         1 5CD      -0.582800
     15 C9          -2.7000    -0.3560    -0.0720 c5         1 5CD       0.132100
     16 C7          -3.3850     0.8370     0.5420 c3         1 5CD       0.039000
     17 CL          -4.2130     1.8190    -0.7100 cl         1 5CD      -0.175400
     18 O4          -1.7070     0.0620    -1.0020 os         1 5CD      -0.384600
     19 C1          -0.5420    -0.6970    -0.8700 c5         1 5CD       0.269800
     20 H8          -0.4990     1.9230     0.3010 h5         1 5CD       0.073800
     21 H2           4.2620    -2.1640    -0.9430 h5         1 5CD       0.047100
     22 H6N1         5.6410     1.6700     0.9170 hn         1 5CD       0.451800
     23 H6N2         4.2360     2.6350     1.1830 hn         1 5CD       0.451800
     24 H7          -1.9810    -3.4090    -0.1170 ho         1 5CD       0.426000
     25 HA           0.0090    -2.1670     0.6570 h1         1 5CD       0.080700
     26 H3          -1.4660    -0.5470     1.6990 h1         1 5CD       0.056700
     27 HB          -2.4250    -2.4120     2.3910 ho         1 5CD       0.421000
     28 H4          -3.4440    -0.9760    -0.5840 h1         1 5CD       0.096700
     29 H5'1        -4.1410     0.5040     1.2490 h1         1 5CD       0.073200
     30 H5'2        -2.6840     1.4900     1.0590 h1         1 5CD       0.073200
     31 H1          -0.2130    -1.0660    -1.8450 h2         1 5CD       0.128700
@<TRIPOS>BOND
     1     1     2 1   
     2     1     5 1   
     3     1    19 1   
     4     2     3 2   
     5     2    20 1   
     6     3     4 1   
     7     4     5 ar  
     8     4     9 ar  
     9     5     6 ar  
    10     6     7 ar  
    11     7     8 ar  
    12     7    21 1   
    13     8     9 ar  
    14     9    10 1   
    15    10    22 1   
    16    10    23 1   
    17    11    12 1   
    18    11    24 1   
    19    12    13 1   
    20    12    19 1   
    21    12    25 1   
    22    13    14 1   
    23    13    15 1   
    24    13    26 1   
    25    14    27 1   
    26    15    16 1   
    27    15    18 1   
    28    15    28 1   
    29    16    17 1   
    30    16    29 1   
    31    16    30 1   
    32    18    19 1   
    33    19    31 1   
@<TRIPOS>SUBSTRUCTURE
     1 5CD         1 TEMP              0 ****  ****    0 ROOT
