@<TRIPOS>MOLECULE
5CD
   31    33     1     0     0
SMALL
No Charge or Current Charge


@<TRIPOS>ATOM
      1 N9           0.8690    -0.3930     0.3420 na         1 5CD      -0.312300
      2 C8           1.0300     0.2020     1.5990 cc         1 5CD       0.412700
      3 N7           2.2340     0.7930     1.7130 nd         1 5CD      -0.555100
      4 C5           2.8320     0.5460     0.4730 ca         1 5CD      -0.098600
      5 C4           2.0150    -0.1680    -0.3660 ca         1 5CD       0.120500
      6 N3           2.3890    -0.5150    -1.6130 nb         1 5CD      -0.222000
      7 C2           3.6260    -0.1080    -1.9880 ca         1 5CD       0.182900
      8 N1           4.5080     0.6010    -1.2420 nb         1 5CD      -0.302000
      9 C6           4.1050     0.9250    -0.0030 ca         1 5CD       0.450900
     10 N6           4.9870     1.6380     0.7480 nv         1 5CD      -1.062900
     11 O2          -1.6660    -3.1600     0.5410 oh         1 5CD      -0.700000
     12 C10         -1.1600    -1.8900     0.9780 c5         1 5CD       0.103300
     13 C3          -2.3580    -0.9110     1.1410 c5         1 5CD       0.088300
     14 O3          -3.4980    -1.5880     1.7020 oh         1 5CD      -0.705000
     15 C9          -2.5450    -0.4850    -0.3450 c5         1 5CD       0.155300
     16 C7          -3.4460     0.7510    -0.5680 c3         1 5CD       0.115600
     17 Cl          -3.5930     1.1790    -2.3340 cl         1 5CD      -0.252000
     18 O4          -1.1950    -0.2100    -0.7750 os         1 5CD      -0.431000
     19 C1          -0.3020    -1.1430    -0.1170 c5         1 5CD       0.322300
     20 H8           0.2610     0.1760     2.3630 h5         1 5CD       0.073800
     21 H2           3.9430    -0.3770    -2.9940 h5         1 5CD       0.047100
     22 H6N1         5.7370     2.1250     0.2650 hn         1 5CD       0.507000
     23 H6N2         4.6240     2.0780     1.5900 hn         1 5CD       0.507000
     24 H7          -2.5890    -3.1660     0.9080 ho         1 5CD       0.525000
     25 HA          -0.6050    -2.0070     1.9190 h1         1 5CD       0.080700
     26 H3          -2.0710    -0.0470     1.7590 h1         1 5CD       0.056700
     27 HB          -4.0250    -0.9250     2.2130 ho         1 5CD       0.520000
     28 H4          -2.9440    -1.3170    -0.9440 h1         1 5CD       0.096700
     29 H5'1        -4.4560     0.5520    -0.1920 h1         1 5CD       0.073200
     30 H5'2        -3.0320     1.6220    -0.0440 h1         1 5CD       0.073200
     31 H1           0.0750    -1.8770    -0.8420 h2         1 5CD       0.128700
@<TRIPOS>BOND
     1     1     2 1   
     2     1     5 1   
     3     1    19 1   
     4     2     3 2   
     5     2    20 1   
     6     3     4 1   
     7     4     5 ar  
     8     4     9 ar  
     9     5     6 ar  
    10     6     7 ar  
    11     7     8 ar  
    12     7    21 1   
    13     8     9 ar  
    14     9    10 1   
    15    10    22 1   
    16    10    23 1   
    17    11    12 1   
    18    11    24 1   
    19    12    13 1   
    20    12    19 1   
    21    12    25 1   
    22    13    14 1   
    23    13    15 1   
    24    13    26 1   
    25    14    27 1   
    26    15    16 1   
    27    15    18 1   
    28    15    28 1   
    29    16    17 1   
    30    16    29 1   
    31    16    30 1   
    32    18    19 1   
    33    19    31 1   
@<TRIPOS>SUBSTRUCTURE
     1 5CD         1 TEMP              0 ****  ****    0 ROOT
