@<TRIPOS>MOLECULE
5CE
   43    45     1     0     0
SMALL
abcg2


@<TRIPOS>ATOM
      1 C01          2.8970    -2.4370     0.0840 ca         1 5CE      -0.115000
      2 C02          3.9530    -1.5330     0.1150 ca         1 5CE       0.134100
      3 C03          3.6800    -0.1750     0.0470 ca         1 5CE      -0.167000
      4 C04          2.3660     0.2800    -0.0520 ca         1 5CE      -0.147300
      5 C05          1.2880    -0.6100    -0.0880 ca         1 5CE      -0.050300
      6 C06          1.6010    -1.9690    -0.0150 ca         1 5CE      -0.084000
      7 C07         -0.1700    -0.2130    -0.1850 c6         1 5CE      -0.022400
      8 C08         -0.9360    -0.6150     1.0800 c6         1 5CE      -0.059400
      9 C09         -2.4170    -0.2550     1.0160 c5         1 5CE      -0.055700
     10 C10         -3.1270    -0.7480    -0.2610 c5         1 5CE      -0.039000
     11 C11         -2.3040    -0.3750    -1.5060 c6         1 5CE      -0.069400
     12 C12         -0.8450    -0.8060    -1.4250 c6         1 5CE      -0.064400
     13 C13         -2.7210     1.2550     1.0810 c5         1 5CE      -0.070400
     14 C14         -3.9580     1.4810     0.1880 c5         1 5CE      -0.114400
     15 C15         -4.4160     0.0880    -0.2600 c5         1 5CE       0.170300
     16 C16         -3.3880    -2.2500    -0.2460 c3         1 5CE      -0.070100
     17 O01         -5.3220    -0.4830     0.6640 oh         1 5CE      -0.658000
     18 O02          5.2050    -2.0200     0.2110 oh         1 5CE      -0.529100
     19 C17          2.1460     1.7640    -0.1190 c3         1 5CE       0.352300
     20 F01          1.5460     2.1360    -1.2620 f          1 5CE      -0.114667
     21 F02          1.3770     2.2100     0.8870 f          1 5CE      -0.114667
     22 F03          3.2860     2.4610    -0.0540 f          1 5CE      -0.114667
     23 H1           3.0900    -3.5010     0.1370 ha         1 5CE       0.134000
     24 H2           4.5050     0.5250     0.0720 ha         1 5CE       0.130000
     25 H3           0.8010    -2.6980    -0.0350 ha         1 5CE       0.123000
     26 H4          -0.2590     0.8680    -0.2840 hc         1 5CE       0.061700
     27 H5          -0.8360    -1.6940     1.2360 hc         1 5CE       0.044700
     28 H6          -0.4780    -0.1400     1.9520 hc         1 5CE       0.044700
     29 H7          -2.9060    -0.7340     1.8710 hc         1 5CE       0.062700
     30 H8          -2.7710    -0.8190    -2.3900 hc         1 5CE       0.041700
     31 H9          -2.3280     0.7070    -1.6690 hc         1 5CE       0.041700
     32 H10         -0.3190    -0.4720    -2.3240 hc         1 5CE       0.043700
     33 H11         -0.7660    -1.8970    -1.4140 hc         1 5CE       0.043700
     34 H12         -2.8960     1.5670     2.1110 hc         1 5CE       0.044700
     35 H13         -1.8780     1.8490     0.7220 hc         1 5CE       0.044700
     36 H14         -4.7600     2.0140     0.7040 hc         1 5CE       0.044200
     37 H15         -3.7040     2.0910    -0.6800 hc         1 5CE       0.044200
     38 H16         -4.8680     0.1190    -1.2630 h1         1 5CE       0.036700
     39 H17         -2.4570    -2.8180    -0.2800 hc         1 5CE       0.036367
     40 H18         -3.9180    -2.5600     0.6540 hc         1 5CE       0.036367
     41 H19         -3.9830    -2.5580    -1.1090 hc         1 5CE       0.036367
     42 H20         -6.0670     0.1180     0.7570 ho         1 5CE       0.439000
     43 H21          5.8480    -1.3030     0.2260 ho         1 5CE       0.469000
@<TRIPOS>BOND
     1     1     2 ar  
     2     1     6 ar  
     3     1    23 1   
     4     2     3 ar  
     5     2    18 1   
     6     3     4 ar  
     7     3    24 1   
     8     4     5 ar  
     9     4    19 1   
    10     5     6 ar  
    11     5     7 1   
    12     6    25 1   
    13     7     8 1   
    14     7    12 1   
    15     7    26 1   
    16     8     9 1   
    17     8    27 1   
    18     8    28 1   
    19     9    10 1   
    20     9    13 1   
    21     9    29 1   
    22    10    11 1   
    23    10    15 1   
    24    10    16 1   
    25    11    12 1   
    26    11    30 1   
    27    11    31 1   
    28    12    32 1   
    29    12    33 1   
    30    13    14 1   
    31    13    34 1   
    32    13    35 1   
    33    14    15 1   
    34    14    36 1   
    35    14    37 1   
    36    15    17 1   
    37    15    38 1   
    38    16    39 1   
    39    16    40 1   
    40    16    41 1   
    41    17    42 1   
    42    18    43 1   
    43    19    20 1   
    44    19    21 1   
    45    19    22 1   
@<TRIPOS>SUBSTRUCTURE
     1 5CE         1 TEMP              0 ****  ****    0 ROOT
