@<TRIPOS>MOLECULE
5CE
   43    45     1     0     0
SMALL
No Charge or Current Charge


@<TRIPOS>ATOM
      1 C01          2.9190    -2.5120     0.0810 ca         1 5CE      -0.115000
      2 C02          3.9900    -1.6160     0.1190 ca         1 5CE       0.134100
      3 C03          3.7500    -0.2360     0.0650 ca         1 5CE      -0.167000
      4 C04          2.4310     0.2800    -0.0320 ca         1 5CE      -0.147300
      5 C05          1.3380    -0.6430    -0.0800 ca         1 5CE      -0.050300
      6 C06          1.6080    -2.0300    -0.0170 ca         1 5CE      -0.084000
      7 C07         -0.1450    -0.2050    -0.1880 c6         1 5CE      -0.022400
      8 C08         -0.9420    -0.5770     1.1010 c6         1 5CE      -0.059400
      9 C09         -2.4490    -0.1980     1.0080 c5         1 5CE      -0.055700
     10 C10         -3.1450    -0.7290    -0.2850 c5         1 5CE      -0.039000
     11 C11         -2.3210    -0.3400    -1.5650 c6         1 5CE      -0.069400
     12 C12         -0.8310    -0.7740    -1.4660 c6         1 5CE      -0.064400
     13 C13         -2.7630     1.3360     0.9970 c5         1 5CE      -0.070400
     14 C14         -4.1030     1.4790     0.2040 c5         1 5CE      -0.114400
     15 C15         -4.5220     0.0260    -0.1750 c5         1 5CE       0.170300
     16 C16         -3.3260    -2.2810    -0.2790 c3         1 5CE      -0.070100
     17 O01         -5.3960    -0.5160     0.8200 oh         1 5CE      -0.658000
     18 O02          5.2650    -2.0920     0.2130 oh         1 5CE      -0.529100
     19 C17          2.2280     1.8120    -0.0790 c3         1 5CE       0.352300
     20 F01          1.6490     2.2090    -1.2360 f          1 5CE      -0.114667
     21 F02          1.4460     2.2500     0.9350 f          1 5CE      -0.114667
     22 F03          3.3850     2.5070     0.0170 f          1 5CE      -0.114667
     23 H1           3.1040    -3.5830     0.1270 ha         1 5CE       0.134000
     24 H2           4.6020     0.4380     0.1000 ha         1 5CE       0.130000
     25 H3           0.7920    -2.7480    -0.0400 ha         1 5CE       0.123000
     26 H4          -0.2010     0.8800    -0.2920 hc         1 5CE       0.061700
     27 H5          -0.8580    -1.6540     1.2950 hc         1 5CE       0.044700
     28 H6          -0.4920    -0.0780     1.9700 hc         1 5CE       0.044700
     29 H7          -2.9040    -0.6500     1.8980 hc         1 5CE       0.062700
     30 H8          -2.7780    -0.7910    -2.4560 hc         1 5CE       0.041700
     31 H9          -2.3510     0.7430    -1.7400 hc         1 5CE       0.041700
     32 H10         -0.2930    -0.4140    -2.3540 hc         1 5CE       0.043700
     33 H11         -0.7540    -1.8670    -1.5010 hc         1 5CE       0.043700
     34 H12         -2.8540     1.7240     2.0170 hc         1 5CE       0.044700
     35 H13         -1.9770     1.9280     0.5170 hc         1 5CE       0.044700
     36 H14         -4.8720     1.9920     0.7930 hc         1 5CE       0.044200
     37 H15         -3.9560     2.0880    -0.6950 hc         1 5CE       0.044200
     38 H16         -5.0410     0.0180    -1.1440 h1         1 5CE       0.036700
     39 H17         -2.3710    -2.8160    -0.2800 hc         1 5CE       0.036367
     40 H18         -3.8670    -2.6230     0.6110 hc         1 5CE       0.036367
     41 H19         -3.8940    -2.6150    -1.1560 hc         1 5CE       0.036367
     42 H20         -6.1920     0.0570     0.8380 ho         1 5CE       0.439000
     43 H21          5.8820    -1.3300     0.2290 ho         1 5CE       0.469000
@<TRIPOS>BOND
     1     1     2 ar  
     2     1     6 ar  
     3     1    23 1   
     4     2     3 ar  
     5     2    18 1   
     6     3     4 ar  
     7     3    24 1   
     8     4     5 ar  
     9     4    19 1   
    10     5     6 ar  
    11     5     7 1   
    12     6    25 1   
    13     7     8 1   
    14     7    12 1   
    15     7    26 1   
    16     8     9 1   
    17     8    27 1   
    18     8    28 1   
    19     9    10 1   
    20     9    13 1   
    21     9    29 1   
    22    10    11 1   
    23    10    15 1   
    24    10    16 1   
    25    11    12 1   
    26    11    30 1   
    27    11    31 1   
    28    12    32 1   
    29    12    33 1   
    30    13    14 1   
    31    13    34 1   
    32    13    35 1   
    33    14    15 1   
    34    14    36 1   
    35    14    37 1   
    36    15    17 1   
    37    15    38 1   
    38    16    39 1   
    39    16    40 1   
    40    16    41 1   
    41    17    42 1   
    42    18    43 1   
    43    19    20 1   
    44    19    21 1   
    45    19    22 1   
@<TRIPOS>SUBSTRUCTURE
     1 5CE         1 TEMP              0 ****  ****    0 ROOT
