@<TRIPOS>MOLECULE
5CH
   39    41     1     0     0
SMALL
bcc


@<TRIPOS>ATOM
      1 N9          -3.5100     0.9640    -0.0810 nb         1 5CH      -0.662000
      2 C2           1.9410    -0.5520    -1.0540 ca         1 5CH      -0.032500
      3 C4          -0.2100    -0.8150     0.0070 cp         1 5CH       0.012000
      4 C5           0.3730    -1.6300     0.9740 ca         1 5CH      -0.133000
      5 C6           1.7320    -1.9000     0.9440 ca         1 5CH      -0.032500
      6 O24          4.6990    -1.6040    -1.4940 o          1 5CH      -0.593300
      7 O23          4.5010    -2.9050     0.6480 o          1 5CH      -0.593300
      8 C22          4.9520    -0.3130     0.7870 c3         1 5CH      -0.224300
      9 C1           2.5040    -1.3520    -0.0690 ca         1 5CH      -0.261500
     10 C3           0.5850    -0.2840    -1.0090 ca         1 5CH      -0.133000
     11 C7          -1.6630    -0.5450     0.0360 cp         1 5CH      -0.147300
     12 C12         -2.5480    -1.6170     0.0510 ca         1 5CH      -0.073000
     13 C11         -3.9050    -1.3670    -0.0070 ca         1 5CH      -0.100900
     14 CL20        -5.0400    -2.6630     0.0030 cl         1 5CH      -0.080400
     15 C10         -4.3480    -0.0560    -0.0950 ca         1 5CH       0.428200
     16 C8          -2.2000     0.7510     0.0040 cq         1 5CH       0.494800
     17 C13         -1.3620     1.9640     0.0730 cq         1 5CH      -0.279800
     18 C18         -1.6050     3.0510    -0.7590 ca         1 5CH      -0.051000
     19 C17         -0.8120     4.1790    -0.6480 ca         1 5CH      -0.253300
     20 C16          0.2020     4.2100     0.3060 ca         1 5CH       0.431600
     21 C19          1.0980     5.3990     0.4620 c3         1 5CH      -0.146400
     22 N15          0.4160     3.1800     1.1250 nb         1 5CH      -0.681000
     23 C14         -0.3370     2.0990     1.0060 ca         1 5CH       0.433200
     24 H2           2.5420    -0.1430    -1.8550 ha         1 5CH       0.158000
     25 H5          -0.2330    -2.0480     1.7680 ha         1 5CH       0.143500
     26 H6           2.1730    -2.5270     1.7060 ha         1 5CH       0.158000
     27 H22          4.6780     0.6200     0.2990 h1         1 5CH       0.104033
     28 H22A         4.5880    -0.3260     1.8120 h1         1 5CH       0.104033
     29 H22B         6.0340    -0.4380     0.7730 h1         1 5CH       0.104033
     30 H3           0.1390     0.3300    -1.7800 ha         1 5CH       0.143500
     31 H12         -2.1750    -2.6330     0.0760 ha         1 5CH       0.160000
     32 H10         -5.4060     0.1680    -0.1730 h4         1 5CH       0.039100
     33 H18         -2.3990     3.0100    -1.4930 ha         1 5CH       0.150000
     34 H17         -0.9780     5.0300    -1.2950 ha         1 5CH       0.144000
     35 H19          1.0970     5.7510     1.4940 hc         1 5CH       0.053033
     36 H19A         2.1280     5.1380     0.2110 hc         1 5CH       0.053033
     37 H19B         0.7920     6.2220    -0.1810 hc         1 5CH       0.053033
     38 H14         -0.1310     1.2980     1.7080 h4         1 5CH       0.022100
     39 S21          4.2480    -1.6790    -0.1070 sy         1 5CH       1.088300
@<TRIPOS>BOND
     1     1    15 ar  
     2     1    16 2   
     3     2     9 ar  
     4     2    10 ar  
     5     2    24 1   
     6     3     4 ar  
     7     3    10 ar  
     8     3    11 1   
     9     4     5 ar  
    10     4    25 1   
    11     5     9 ar  
    12     5    26 1   
    13     6    39 2   
    14     7    39 2   
    15     8    27 1   
    16     8    28 1   
    17     8    29 1   
    18     8    39 1   
    19     9    39 1   
    20    10    30 1   
    21    11    12 ar  
    22    11    16 1   
    23    12    13 ar  
    24    12    31 1   
    25    13    14 1   
    26    13    15 ar  
    27    15    32 1   
    28    16    17 1   
    29    17    18 1   
    30    17    23 2   
    31    18    19 ar  
    32    18    33 1   
    33    19    20 ar  
    34    19    34 1   
    35    20    21 1   
    36    20    22 ar  
    37    21    35 1   
    38    21    36 1   
    39    21    37 1   
    40    22    23 ar  
    41    23    38 1   
@<TRIPOS>SUBSTRUCTURE
     1 5CH         1 TEMP              0 ****  ****    0 ROOT
