@<TRIPOS>MOLECULE
5CH
   39    41     1     0     0
SMALL
No Charge or Current Charge


@<TRIPOS>ATOM
      1 N9          -3.5180     0.9750    -0.3150 nb         1 5CH      -0.662000
      2 C2           2.0090    -0.5670    -1.0310 ca         1 5CH      -0.014500
      3 C4          -0.1930    -0.8730     0.0170 cp         1 5CH       0.012000
      4 C5           0.4050    -1.7690     0.9360 ca         1 5CH      -0.115000
      5 C6           1.7790    -2.0600     0.8800 ca         1 5CH      -0.014500
      6 O24          4.8440    -1.5470    -1.5310 o          1 5CH      -0.522500
      7 O23          4.6050    -3.1060     0.4850 o          1 5CH      -0.522500
      8 C22          5.0640    -0.5570     0.8850 c3         1 5CH      -0.335100
      9 C1           2.5870    -1.4590    -0.1060 ca         1 5CH      -0.261500
     10 C3           0.6350    -0.2820    -0.9680 ca         1 5CH      -0.115000
     11 C7          -1.6550    -0.5610     0.0810 cp         1 5CH      -0.082000
     12 C12         -2.5480    -1.6440     0.2390 ca         1 5CH      -0.055000
     13 C11         -3.9210    -1.3910     0.1350 ca         1 5CH       0.056000
     14 Cl20        -5.0800    -2.7080     0.3070 cl         1 5CH      -0.172000
     15 C10         -4.3540    -0.0830    -0.1570 ca         1 5CH       0.362900
     16 C8          -2.1900     0.8050    -0.1440 cq         1 5CH       0.429500
     17 C13         -1.4030     2.0800    -0.0380 cq         1 5CH      -0.214500
     18 C18         -1.7490     3.2280    -0.7820 ca         1 5CH      -0.033000
     19 C17         -0.9710     4.3870    -0.6280 ca         1 5CH      -0.170000
     20 C16          0.1170     4.3750     0.2600 ca         1 5CH       0.366300
     21 C19          0.9800     5.6060     0.4610 c3         1 5CH      -0.146400
     22 N15          0.4460     3.2890     0.9890 nb         1 5CH      -0.681000
     23 C14         -0.3030     2.1740     0.8360 ca         1 5CH       0.367900
     24 H2           2.6180    -0.0920    -1.8000 ha         1 5CH       0.140000
     25 H5          -0.1990    -2.2330     1.7110 ha         1 5CH       0.125500
     26 H6           2.2080    -2.7470     1.6080 ha         1 5CH       0.140000
     27 H22          4.8060     0.4230     0.4690 h1         1 5CH       0.104033
     28 H22A         4.6390    -0.6750     1.8880 h1         1 5CH       0.104033
     29 H22B         6.1490    -0.6980     0.9040 h1         1 5CH       0.104033
     30 H3           0.2060     0.4000    -1.6980 ha         1 5CH       0.125500
     31 H12         -2.1890    -2.6590     0.3940 ha         1 5CH       0.142000
     32 H10         -5.4160     0.1250    -0.2780 h4         1 5CH       0.039100
     33 H18         -2.5920     3.2310    -1.4710 ha         1 5CH       0.132000
     34 H17         -1.2090     5.2850    -1.1900 ha         1 5CH       0.126000
     35 H19          0.6600     6.1630     1.3480 hc         1 5CH       0.053033
     36 H19A         2.0350     5.3360     0.5930 hc         1 5CH       0.053033
     37 H19B         0.9180     6.2810    -0.4010 hc         1 5CH       0.053033
     38 H14         -0.0150     1.3290     1.4590 h4         1 5CH       0.022100
     39 S21          4.3550    -1.8170    -0.1730 sy         1 5CH       1.057500
@<TRIPOS>BOND
     1     1    15 ar  
     2     1    16 2   
     3     2     9 ar  
     4     2    10 ar  
     5     2    24 1   
     6     3     4 ar  
     7     3    10 ar  
     8     3    11 1   
     9     4     5 ar  
    10     4    25 1   
    11     5     9 ar  
    12     5    26 1   
    13     6    39 2   
    14     7    39 2   
    15     8    27 1   
    16     8    28 1   
    17     8    29 1   
    18     8    39 1   
    19     9    39 1   
    20    10    30 1   
    21    11    12 ar  
    22    11    16 1   
    23    12    13 ar  
    24    12    31 1   
    25    13    14 1   
    26    13    15 ar  
    27    15    32 1   
    28    16    17 1   
    29    17    18 1   
    30    17    23 2   
    31    18    19 ar  
    32    18    33 1   
    33    19    20 ar  
    34    19    34 1   
    35    20    21 1   
    36    20    22 ar  
    37    21    35 1   
    38    21    36 1   
    39    21    37 1   
    40    22    23 ar  
    41    23    38 1   
@<TRIPOS>SUBSTRUCTURE
     1 5CH         1 TEMP              0 ****  ****    0 ROOT
