@<TRIPOS>MOLECULE
5CI
   49    51     1     0     0
SMALL
abcg2


@<TRIPOS>ATOM
      1 O41         -6.6310    -2.7310     0.0230 o          1 5CI      -0.747250
      2 C51         -5.4180    -2.5350    -0.1330 c          1 5CI       0.720500
      3 O31         -4.5190    -3.4060     0.0330 o          1 5CI      -0.747250
      4 C41         -4.9560    -1.1520    -0.6050 c3         1 5CI      -0.216900
      5 C31         -3.6580    -0.6920     0.0710 c3         1 5CI       0.167000
      6 C21         -3.8950    -0.4380     1.5630 c3         1 5CI      -0.216900
      7 C11         -4.8420     0.7260     1.8930 c          1 5CI       0.720500
      8 O21         -4.8990     1.6580     1.0640 o          1 5CI      -0.747250
      9 O11         -5.4480     0.6640     2.9800 o          1 5CI      -0.747250
     10 O71         -2.6540    -1.6770    -0.1180 oh         1 5CI      -0.798000
     11 C61         -3.0940     0.5460    -0.6400 c          1 5CI       0.652100
     12 O51         -3.5170     0.9400    -1.7170 o          1 5CI      -0.652100
     13 N5          -2.0030     1.0990    -0.0720 ns         1 5CI      -0.481900
     14 C5          -1.1510     1.9880    -0.8210 c3         1 5CI       0.100000
     15 C4          -0.0670     2.5980     0.0490 c5         1 5CI       0.157300
     16 O4           0.6470     1.5800     0.7750 os         1 5CI      -0.433000
     17 C3           0.9740     3.3110    -0.8120 c5         1 5CI       0.106300
     18 O3           1.5270     4.3750    -0.0840 oh         1 5CI      -0.708000
     19 C2           1.9950     2.1850    -1.0100 c5         1 5CI       0.067300
     20 O2           3.2780     2.5960    -1.3670 oh         1 5CI      -0.702000
     21 C1           1.9900     1.5970     0.3960 c5         1 5CI       0.322300
     22 N9           2.5940     0.2890     0.5140 na         1 5CI      -0.264300
     23 C8           2.1500    -0.9670     0.1750 cc         1 5CI       0.354800
     24 BR8          0.4290    -1.3300    -0.4020 br         1 5CI       0.125700
     25 N7           3.0210    -1.9030     0.3770 nd         1 5CI      -0.545100
     26 C7           4.1200    -1.2480     0.8630 ca         1 5CI      -0.092600
     27 C9           3.8800     0.1100     0.9570 ca         1 5CI       0.130500
     28 N3           4.7290     1.0320     1.4010 nb         1 5CI      -0.203000
     29 C10          5.8840     0.5020     1.7610 ca         1 5CI       0.164900
     30 N1           6.2570    -0.7750     1.7220 nb         1 5CI      -0.321000
     31 C6           5.3900    -1.6920     1.2790 ca         1 5CI       0.443900
     32 N6           5.7480    -2.9750     1.2540 nv         1 5CI      -1.074900
     33 H2          -4.7920    -1.2090    -1.6860 hc         1 5CI       0.040200
     34 H3          -5.7470    -0.4180    -0.4550 hc         1 5CI       0.040200
     35 H4          -4.2530    -1.3580     2.0330 hc         1 5CI       0.040200
     36 H5          -2.9360    -0.2370     2.0570 hc         1 5CI       0.040200
     37 H7          -3.1630    -2.5380    -0.0140 ho         1 5CI       0.525000
     38 H8          -1.5850     0.6010     0.6980 hn         1 5CI       0.325500
     39 H9          -0.7020     1.4650    -1.6740 h1         1 5CI       0.033700
     40 H10         -1.7410     2.8080    -1.2330 h1         1 5CI       0.033700
     41 H11         -0.5180     3.2820     0.7740 h1         1 5CI       0.108700
     42 H12          0.5470     3.6500    -1.7640 h1         1 5CI       0.057700
     43 H13          2.3430     4.6440    -0.5220 ho         1 5CI       0.506000
     44 H14          1.5830     1.4530    -1.7160 h1         1 5CI       0.070700
     45 H15          3.3420     2.6160    -2.3260 ho         1 5CI       0.503000
     46 H16          2.5820     2.2410     1.0560 h2         1 5CI       0.103700
     47 H17          6.6320     1.1940     2.1320 h5         1 5CI       0.033100
     48 H18          5.1120    -3.6870     0.9410 hn         1 5CI       0.502000
     49 H19          6.6610    -3.2530     1.5710 hn         1 5CI       0.502000
@<TRIPOS>BOND
     1     1     2 1   
     2     2     3 1   
     3     2     4 1   
     4     4     5 1   
     5     4    33 1   
     6     4    34 1   
     7     5     6 1   
     8     5    10 1   
     9     5    11 1   
    10     6     7 1   
    11     6    35 1   
    12     6    36 1   
    13     7     8 1   
    14     7     9 1   
    15    10    37 1   
    16    11    12 2   
    17    11    13 1   
    18    13    14 1   
    19    13    38 1   
    20    14    15 1   
    21    14    39 1   
    22    14    40 1   
    23    15    16 1   
    24    15    17 1   
    25    15    41 1   
    26    16    21 1   
    27    17    18 1   
    28    17    19 1   
    29    17    42 1   
    30    18    43 1   
    31    19    20 1   
    32    19    21 1   
    33    19    44 1   
    34    20    45 1   
    35    21    22 1   
    36    21    46 1   
    37    22    23 1   
    38    22    27 1   
    39    23    24 1   
    40    23    25 2   
    41    25    26 1   
    42    26    27 ar  
    43    26    31 ar  
    44    27    28 ar  
    45    28    29 ar  
    46    29    30 ar  
    47    29    47 1   
    48    30    31 ar  
    49    31    32 1   
    50    32    48 1   
    51    32    49 1   
@<TRIPOS>SUBSTRUCTURE
     1 5CI         1 TEMP              0 ****  ****    0 ROOT
