@<TRIPOS>MOLECULE
5CI
   49    51     1     0     0
SMALL
No Charge or Current Charge


@<TRIPOS>ATOM
      1 O41         -5.2300    -3.4210     0.7700 o          1 5CI      -0.747250
      2 C51         -4.0890    -3.0270     0.5900 c          1 5CI       0.720500
      3 O31         -3.1090    -3.5060     1.1410 o          1 5CI      -0.747250
      4 C41         -3.8550    -1.7700    -0.2540 c3         1 5CI      -0.216900
      5 C31         -3.5610    -0.5090     0.6170 c3         1 5CI       0.167000
      6 C21         -4.7550    -0.0530     1.5090 c3         1 5CI      -0.216900
      7 C11         -5.8770     0.6020     0.6900 c          1 5CI       0.720500
      8 O21         -5.8450     1.8140     0.5460 o          1 5CI      -0.747250
      9 O11         -6.7730    -0.1030     0.2540 o          1 5CI      -0.747250
     10 O71         -2.5160    -0.9160     1.5400 oh         1 5CI      -0.798000
     11 C61         -3.0610     0.6860    -0.3100 c          1 5CI       0.652100
     12 O51         -3.5130     0.9340    -1.4260 o          1 5CI      -0.652100
     13 N5          -1.9640     1.3580     0.1760 ns         1 5CI      -0.481900
     14 C5          -1.2190     2.3910    -0.5440 c3         1 5CI       0.100000
     15 C4           0.0330     2.9100     0.2100 c5         1 5CI       0.157300
     16 O4           0.7590     1.7760     0.7680 os         1 5CI      -0.433000
     17 C3           1.0510     3.6660    -0.7160 c5         1 5CI       0.106300
     18 O3           1.8440     4.6330    -0.0160 oh         1 5CI      -0.708000
     19 C2           1.9450     2.4840    -1.1840 c5         1 5CI       0.067300
     20 O2           3.1960     2.9560    -1.7300 oh         1 5CI      -0.702000
     21 C1           2.0750     1.7300     0.1800 c5         1 5CI       0.322300
     22 N9           2.5850     0.3560     0.1820 na         1 5CI      -0.264300
     23 C8           2.0720    -0.7460    -0.5240 cc         1 5CI       0.354800
     24 Br8          0.4330    -0.7600    -1.4770 br         1 5CI       0.125700
     25 N7           2.8620    -1.8280    -0.3940 nd         1 5CI      -0.545100
     26 C7           3.9000    -1.3720     0.4210 ca         1 5CI      -0.092600
     27 C9           3.7420    -0.0580     0.7820 ca         1 5CI       0.130500
     28 N3           4.6280     0.5810     1.5730 nb         1 5CI      -0.203000
     29 C10          5.6820    -0.1600     1.9930 ca         1 5CI       0.164900
     30 N1           5.9290    -1.4590     1.6970 nb         1 5CI      -0.321000
     31 C6           5.0320    -2.0630     0.9040 ca         1 5CI       0.443900
     32 N6           5.2790    -3.3680     0.6110 nv         1 5CI      -1.074900
     33 H2          -2.9330    -1.9140    -0.8310 hc         1 5CI       0.040200
     34 H3          -4.7190    -1.5640    -0.8950 hc         1 5CI       0.040200
     35 H4          -5.1350    -0.9480     2.0140 hc         1 5CI       0.040200
     36 H5          -4.3420     0.6910     2.2020 hc         1 5CI       0.040200
     37 H7          -2.5540    -1.9150     1.5430 ho         1 5CI       0.525000
     38 H8          -1.5970     1.0000     1.0530 hn         1 5CI       0.325500
     39 H9          -0.9140     1.9790    -1.5140 h1         1 5CI       0.033700
     40 H10         -1.8910     3.2370    -0.7400 h1         1 5CI       0.033700
     41 H11         -0.3060     3.5540     1.0330 h1         1 5CI       0.108700
     42 H12          0.5410     4.1410    -1.5670 h1         1 5CI       0.057700
     43 H13          2.7180     4.5980    -0.4800 ho         1 5CI       0.506000
     44 H14          1.4120     1.8740    -1.9260 h1         1 5CI       0.070700
     45 H15          3.6720     2.1780    -2.1070 ho         1 5CI       0.503000
     46 H16          2.7570     2.2990     0.8250 h2         1 5CI       0.103700
     47 H17          6.4050     0.3420     2.6340 h5         1 5CI       0.033100
     48 H18          4.5100    -3.8980     0.2070 hn         1 5CI       0.502000
     49 H19          5.9210    -3.8810     1.2090 hn         1 5CI       0.502000
@<TRIPOS>BOND
     1     1     2 1   
     2     2     3 1   
     3     2     4 1   
     4     4     5 1   
     5     4    33 1   
     6     4    34 1   
     7     5     6 1   
     8     5    10 1   
     9     5    11 1   
    10     6     7 1   
    11     6    35 1   
    12     6    36 1   
    13     7     8 1   
    14     7     9 1   
    15    10    37 1   
    16    11    12 2   
    17    11    13 1   
    18    13    14 1   
    19    13    38 1   
    20    14    15 1   
    21    14    39 1   
    22    14    40 1   
    23    15    16 1   
    24    15    17 1   
    25    15    41 1   
    26    16    21 1   
    27    17    18 1   
    28    17    19 1   
    29    17    42 1   
    30    18    43 1   
    31    19    20 1   
    32    19    21 1   
    33    19    44 1   
    34    20    45 1   
    35    21    22 1   
    36    21    46 1   
    37    22    23 1   
    38    22    27 1   
    39    23    24 1   
    40    23    25 2   
    41    25    26 1   
    42    26    27 ar  
    43    26    31 ar  
    44    27    28 ar  
    45    28    29 ar  
    46    29    30 ar  
    47    29    47 1   
    48    30    31 ar  
    49    31    32 1   
    50    32    48 1   
    51    32    49 1   
@<TRIPOS>SUBSTRUCTURE
     1 5CI         1 TEMP              0 ****  ****    0 ROOT
