@<TRIPOS>MOLECULE
5CJ
   40    42     1     0     0
SMALL
No Charge or Current Charge


@<TRIPOS>ATOM
      1 C            3.1980     2.1220    -0.3270 c3         1 5CJ      -0.070100
      2 O            5.4900     0.6740     0.7910 oh         1 5CJ      -0.658000
      3 C01         -3.0620     1.4440     0.0580 ca         1 5CJ       0.082000
      4 C02         -3.9820     0.3770     0.0680 ca         1 5CJ       0.089100
      5 C03         -1.6820     1.2000    -0.0320 ca         1 5CJ      -0.099000
      6 C04          0.3310    -0.3690    -0.2100 c6         1 5CJ      -0.014400
      7 C05          1.0700     0.1240     1.0730 c6         1 5CJ      -0.059400
      8 C06          3.1320    -1.5240     0.9850 c5         1 5CJ      -0.069400
      9 C07          3.2320     0.5600    -0.3150 c5         1 5CJ      -0.039000
     10 C08          4.4860    -1.4890     0.2030 c5         1 5CJ      -0.114400
     11 C09         -3.4980    -0.9450    -0.0120 ca         1 5CJ       0.116000
     12 C10         -2.1140    -1.1930    -0.1010 ca         1 5CJ       0.155000
     13 O01         -5.3310     0.6260     0.1560 oh         1 5CJ      -0.503100
     14 C11          2.4710     0.0460    -1.5890 c6         1 5CJ      -0.069400
     15 C12         -1.1880    -0.1210    -0.1130 ca         1 5CJ      -0.095300
     16 C13          2.6140    -0.0470     0.9840 c5         1 5CJ      -0.055700
     17 C14          0.9360     0.2700    -1.4950 c6         1 5CJ      -0.064400
     18 C15          4.7000     0.0030    -0.1960 c5         1 5CJ       0.170300
     19 F           -3.5050     2.7200     0.1340 f          1 5CJ      -0.179000
     20 H1           2.1780     2.5200    -0.3360 hc         1 5CJ       0.037033
     21 H2           3.6840     2.5460     0.5590 hc         1 5CJ       0.037033
     22 H3           3.7170     2.5210    -1.2070 hc         1 5CJ       0.037033
     23 H4           6.3590     0.2200     0.8120 ho         1 5CJ       0.440000
     24 H5          -0.9990     2.0460    -0.0360 ha         1 5CJ       0.141000
     25 H6           0.5030    -1.4490    -0.2910 hc         1 5CJ       0.066700
     26 H7           0.8410     1.1830     1.2520 hc         1 5CJ       0.044200
     27 H8           0.6910    -0.4190     1.9500 hc         1 5CJ       0.044200
     28 H9           2.4370    -2.2180     0.5020 hc         1 5CJ       0.043700
     29 H10          3.2670    -1.8920     2.0090 hc         1 5CJ       0.043700
     30 H11          5.3150    -1.8810     0.8030 hc         1 5CJ       0.045200
     31 H12          4.4320    -2.1250    -0.6880 hc         1 5CJ       0.045200
     32 H13         -5.4630     1.5990     0.2020 ho         1 5CJ       0.483000
     33 H14          2.8630     0.5450    -2.4860 hc         1 5CJ       0.042200
     34 H15          2.6520    -1.0250    -1.7520 hc         1 5CJ       0.042200
     35 H16          3.0040     0.4700     1.8700 hc         1 5CJ       0.063700
     36 H17          0.4540    -0.1710    -2.3780 hc         1 5CJ       0.043700
     37 H18          0.7060     1.3420    -1.5400 hc         1 5CJ       0.043700
     38 H19          5.2140     0.0700    -1.1660 h1         1 5CJ       0.036700
     39 F02         -1.6800    -2.4750    -0.1750 f          1 5CJ      -0.157000
     40 F01         -4.3670    -1.9860    -0.0020 f          1 5CJ      -0.144000
@<TRIPOS>BOND
     1     1     9 1   
     2     1    20 1   
     3     1    21 1   
     4     1    22 1   
     5     2    18 1   
     6     2    23 1   
     7     3     4 ar  
     8     3     5 ar  
     9     3    19 1   
    10     4    11 ar  
    11     4    13 1   
    12     5    15 ar  
    13     5    24 1   
    14     6     7 1   
    15     6    15 1   
    16     6    17 1   
    17     6    25 1   
    18     7    16 1   
    19     7    26 1   
    20     7    27 1   
    21     8    10 1   
    22     8    16 1   
    23     8    28 1   
    24     8    29 1   
    25     9    14 1   
    26     9    16 1   
    27     9    18 1   
    28    10    18 1   
    29    10    30 1   
    30    10    31 1   
    31    11    12 ar  
    32    11    40 1   
    33    12    15 ar  
    34    12    39 1   
    35    13    32 1   
    36    14    17 1   
    37    14    33 1   
    38    14    34 1   
    39    16    35 1   
    40    17    36 1   
    41    17    37 1   
    42    18    38 1   
@<TRIPOS>SUBSTRUCTURE
     1 5CJ         1 TEMP              0 ****  ****    0 ROOT
