@<TRIPOS>MOLECULE
5CJ
   40    42     1     0     0
SMALL
bcc


@<TRIPOS>ATOM
      1 C            3.3150     2.1040    -0.2960 c3         1 5CJ      -0.070100
      2 O            5.4420     0.5860     0.6370 oh         1 5CJ      -0.595800
      3 C01         -3.0340     1.3640     0.0520 ca         1 5CJ       0.046900
      4 C02         -3.9360     0.3040     0.0500 ca         1 5CJ       0.089100
      5 C03         -1.6750     1.1820    -0.0340 ca         1 5CJ      -0.117000
      6 C04          0.3630    -0.3030    -0.2180 c6         1 5CJ      -0.014400
      7 C05          1.0680     0.1980     1.0460 c6         1 5CJ      -0.059400
      8 C06          3.0710    -1.4390     1.0790 c5         1 5CJ      -0.069400
      9 C07          3.2330     0.5810    -0.2920 c5         1 5CJ      -0.039000
     10 C08          4.3190    -1.5300     0.1790 c5         1 5CJ      -0.114400
     11 C09         -3.3880    -0.9650    -0.0460 ca         1 5CJ       0.080900
     12 C10         -2.0190    -1.1550    -0.1330 ca         1 5CJ       0.119900
     13 O01         -5.2670     0.4300     0.1330 oh         1 5CJ      -0.464100
     14 C11          2.4630     0.1000    -1.5340 c6         1 5CJ      -0.069400
     15 C12         -1.1270    -0.0970    -0.1300 ca         1 5CJ      -0.095300
     16 C13          2.5830     0.0210     0.9900 c5         1 5CJ      -0.055700
     17 C14          0.9640     0.3630    -1.4570 c6         1 5CJ      -0.064400
     18 C15          4.6110    -0.0970    -0.2820 c5         1 5CJ       0.147100
     19 F           -3.5430     2.6060     0.1420 f          1 5CJ      -0.143900
     20 H1           2.3230     2.5550    -0.3530 hc         1 5CJ       0.037033
     21 H2           3.7910     2.4880     0.6050 hc         1 5CJ       0.037033
     22 H3           3.8810     2.4660    -1.1580 hc         1 5CJ       0.037033
     23 H4           6.2520     0.0760     0.7370 ho         1 5CJ       0.401000
     24 H5          -1.0320     2.0530    -0.0260 ha         1 5CJ       0.159000
     25 H6           0.5510    -1.3760    -0.3100 hc         1 5CJ       0.066700
     26 H7           0.8360     1.2580     1.1900 hc         1 5CJ       0.044200
     27 H8           0.6690    -0.3210     1.9220 hc         1 5CJ       0.044200
     28 H9           2.3050    -2.1390     0.7390 hc         1 5CJ       0.043700
     29 H10          3.2900    -1.7060     2.1130 hc         1 5CJ       0.043700
     30 H11          5.1810    -1.9640     0.6910 hc         1 5CJ       0.045200
     31 H12          4.1290    -2.1710    -0.6830 hc         1 5CJ       0.045200
     32 H13         -5.5200     1.3560     0.2300 ho         1 5CJ       0.444000
     33 H14          2.8780     0.5840    -2.4230 hc         1 5CJ       0.042200
     34 H15          2.6090    -0.9740    -1.6830 hc         1 5CJ       0.042200
     35 H16          3.0050     0.5680     1.8390 hc         1 5CJ       0.063700
     36 H17          0.4770    -0.0220    -2.3570 hc         1 5CJ       0.043700
     37 H18          0.7630     1.4390    -1.4400 hc         1 5CJ       0.043700
     38 H19          5.0650    -0.0850    -1.2850 h1         1 5CJ       0.036700
     39 F02         -1.5830    -2.4200    -0.2160 f          1 5CJ      -0.121900
     40 F01         -4.2040    -2.0220    -0.0530 f          1 5CJ      -0.108900
@<TRIPOS>BOND
     1     1     9 1   
     2     1    20 1   
     3     1    21 1   
     4     1    22 1   
     5     2    18 1   
     6     2    23 1   
     7     3     4 ar  
     8     3     5 ar  
     9     3    19 1   
    10     4    11 ar  
    11     4    13 1   
    12     5    15 ar  
    13     5    24 1   
    14     6     7 1   
    15     6    15 1   
    16     6    17 1   
    17     6    25 1   
    18     7    16 1   
    19     7    26 1   
    20     7    27 1   
    21     8    10 1   
    22     8    16 1   
    23     8    28 1   
    24     8    29 1   
    25     9    14 1   
    26     9    16 1   
    27     9    18 1   
    28    10    18 1   
    29    10    30 1   
    30    10    31 1   
    31    11    12 ar  
    32    11    40 1   
    33    12    15 ar  
    34    12    39 1   
    35    13    32 1   
    36    14    17 1   
    37    14    33 1   
    38    14    34 1   
    39    16    35 1   
    40    17    36 1   
    41    17    37 1   
    42    18    38 1   
@<TRIPOS>SUBSTRUCTURE
     1 5CJ         1 TEMP              0 ****  ****    0 ROOT
