@<TRIPOS>MOLECULE
5CK
   40    42     1     0     0
SMALL
abcg2


@<TRIPOS>ATOM
      1 C01         -0.9100     0.2840    -1.1380 c6         1 5CK      -0.059400
      2 C02         -2.4000    -0.0200    -1.0110 c5         1 5CK      -0.055700
      3 C03         -3.0470     0.5410     0.2730 c5         1 5CK      -0.038000
      4 C04         -2.1920     0.1850     1.5010 c6         1 5CK      -0.069400
      5 C05         -0.7230     0.5610     1.3510 c6         1 5CK      -0.064400
      6 C06         -2.7550    -1.5200    -1.0110 c5         1 5CK      -0.069400
      7 C07         -3.9620    -1.6750    -0.0630 c5         1 5CK      -0.114400
      8 C08         -4.3600    -0.2530     0.3510 c5         1 5CK       0.170300
      9 O01         -5.2850     0.3130    -0.5570 oh         1 5CK      -0.658000
     10 C09         -3.2630     2.0490     0.2140 c3         1 5CK      -0.070100
     11 O02          5.3960     1.2280    -0.4040 oh         1 5CK      -0.523100
     12 F01          2.0340    -1.9980     0.3560 f          1 5CK      -0.162000
     13 F02          4.6020    -1.3820     0.1160 f          1 5CK      -0.171000
     14 C10         -0.1140    -0.1000     0.1120 c6         1 5CK      -0.011400
     15 C11          1.7830     1.5370    -0.2960 ca         1 5CK      -0.061000
     16 C12          1.3490     0.2360    -0.0340 ca         1 5CK      -0.124300
     17 C13          2.3410    -0.7190     0.1000 ca         1 5CK       0.180000
     18 C14          3.6850    -0.4090    -0.0210 ca         1 5CK       0.022000
     19 C15          4.1020     0.8880    -0.2800 ca         1 5CK       0.137100
     20 C16          3.1220     1.8660    -0.4170 ca         1 5CK      -0.143000
     21 H1          -0.5020    -0.2350    -2.0100 hc         1 5CK       0.043200
     22 H2          -0.7800     1.3540    -1.3350 hc         1 5CK       0.043200
     23 H3          -2.9030     0.4470    -1.8640 hc         1 5CK       0.062700
     24 H4          -2.6120     0.6750     2.3840 hc         1 5CK       0.041200
     25 H5          -2.2440    -0.8890     1.7040 hc         1 5CK       0.041200
     26 H6          -0.6060     1.6470     1.2890 hc         1 5CK       0.043200
     27 H7          -0.1750     0.2470     2.2440 hc         1 5CK       0.043200
     28 H8          -2.9820    -1.8610    -2.0220 hc         1 5CK       0.043700
     29 H9          -1.9170    -2.1280    -0.6640 hc         1 5CK       0.043700
     30 H10         -4.8000    -2.2020    -0.5260 hc         1 5CK       0.044700
     31 H11         -3.6890    -2.2600     0.8170 hc         1 5CK       0.044700
     32 H12         -4.7710    -0.2340     1.3720 h1         1 5CK       0.036700
     33 H13         -6.0520    -0.2660    -0.5970 ho         1 5CK       0.440000
     34 H14         -3.8230     2.3430    -0.6730 hc         1 5CK       0.036367
     35 H15         -3.8110     2.4040     1.0900 hc         1 5CK       0.036367
     36 H16         -2.3160     2.5900     0.1880 hc         1 5CK       0.036367
     37 H17          5.9760     0.4690    -0.2710 ho         1 5CK       0.481000
     38 H18         -0.2060    -1.1810     0.2490 hc         1 5CK       0.063700
     39 H19          1.0490     2.3240    -0.4080 ha         1 5CK       0.125000
     40 H20          3.4200     2.8860    -0.6200 ha         1 5CK       0.137000
@<TRIPOS>BOND
     1     1     2 1   
     2     1    14 1   
     3     1    21 1   
     4     1    22 1   
     5     2     3 1   
     6     2     6 1   
     7     2    23 1   
     8     3     4 1   
     9     3     8 1   
    10     3    10 1   
    11     4     5 1   
    12     4    24 1   
    13     4    25 1   
    14     5    14 1   
    15     5    26 1   
    16     5    27 1   
    17     6     7 1   
    18     6    28 1   
    19     6    29 1   
    20     7     8 1   
    21     7    30 1   
    22     7    31 1   
    23     8     9 1   
    24     8    32 1   
    25     9    33 1   
    26    10    34 1   
    27    10    35 1   
    28    10    36 1   
    29    11    19 1   
    30    11    37 1   
    31    12    17 1   
    32    13    18 1   
    33    14    16 1   
    34    14    38 1   
    35    15    16 ar  
    36    15    20 ar  
    37    15    39 1   
    38    16    17 ar  
    39    17    18 ar  
    40    18    19 ar  
    41    19    20 ar  
    42    20    40 1   
@<TRIPOS>SUBSTRUCTURE
     1 5CK         1 TEMP              0 ****  ****    0 ROOT
