@<TRIPOS>MOLECULE
5CK
   40    42     1     0     0
SMALL
No Charge or Current Charge


@<TRIPOS>ATOM
      1 C01         -0.8930     0.2030    -1.1410 c6         1 5CK      -0.059400
      2 C02         -2.4110    -0.1050    -0.9940 c5         1 5CK      -0.055700
      3 C03         -3.0500     0.5220     0.2860 c5         1 5CK      -0.038000
      4 C04         -2.2120     0.1600     1.5640 c6         1 5CK      -0.069400
      5 C05         -0.7080     0.5190     1.4090 c6         1 5CK      -0.064400
      6 C06         -2.7880    -1.6210    -0.8920 c5         1 5CK      -0.069400
      7 C07         -4.1180    -1.6620    -0.0710 c5         1 5CK      -0.114400
      8 C08         -4.4620    -0.1750     0.2460 c5         1 5CK       0.170300
      9 O01         -5.3360     0.3580    -0.7550 oh         1 5CK      -0.658000
     10 C09         -3.1630     2.0780     0.2050 c3         1 5CK      -0.070100
     11 O02          5.4350     1.3520    -0.4530 oh         1 5CK      -0.523100
     12 F01          2.1210    -2.0510     0.1730 f          1 5CK      -0.162000
     13 F02          4.7490    -1.3210    -0.1130 f          1 5CK      -0.171000
     14 C10         -0.0780    -0.1390     0.1450 c6         1 5CK      -0.011400
     15 C11          1.7750     1.5940    -0.1870 ca         1 5CK      -0.061000
     16 C12          1.4080     0.2400    -0.0120 ca         1 5CK      -0.124300
     17 C13          2.4290    -0.7420     0.0100 ca         1 5CK       0.180000
     18 C14          3.7800    -0.3730    -0.1370 ca         1 5CK       0.022000
     19 C15          4.1280     0.9800    -0.3090 ca         1 5CK       0.137100
     20 C16          3.1240     1.9580    -0.3340 ca         1 5CK      -0.143000
     21 H1          -0.4860    -0.3560    -1.9950 hc         1 5CK       0.043200
     22 H2          -0.7690     1.2650    -1.3890 hc         1 5CK       0.043200
     23 H3          -2.8700     0.3190    -1.8960 hc         1 5CK       0.062700
     24 H4          -2.6260     0.6750     2.4410 hc         1 5CK       0.041200
     25 H5          -2.2870    -0.9110     1.7950 hc         1 5CK       0.041200
     26 H6          -0.5790     1.6080     1.3830 hc         1 5CK       0.043200
     27 H7          -0.1640     0.1790     2.3010 hc         1 5CK       0.043200
     28 H8          -2.9130    -2.0620    -1.8870 hc         1 5CK       0.043700
     29 H9          -2.0180    -2.2160    -0.3910 hc         1 5CK       0.043700
     30 H10         -4.9210    -2.1660    -0.6210 hc         1 5CK       0.044700
     31 H11         -3.9820    -2.2350     0.8530 hc         1 5CK       0.044700
     32 H12         -4.9550    -0.0970     1.2250 h1         1 5CK       0.036700
     33 H13         -6.1590    -0.1760    -0.7230 ho         1 5CK       0.440000
     34 H14         -3.7090     2.3990    -0.6890 hc         1 5CK       0.036367
     35 H15         -3.6950     2.4800     1.0750 hc         1 5CK       0.036367
     36 H16         -2.1860     2.5690     0.1580 hc         1 5CK       0.036367
     37 H17          5.9870     0.5400    -0.4100 ho         1 5CK       0.481000
     38 H18         -0.1460    -1.2230     0.2960 hc         1 5CK       0.063700
     39 H19          1.0130     2.3710    -0.2110 ha         1 5CK       0.125000
     40 H20          3.3920     3.0040    -0.4670 ha         1 5CK       0.137000
@<TRIPOS>BOND
     1     1     2 1   
     2     1    14 1   
     3     1    21 1   
     4     1    22 1   
     5     2     3 1   
     6     2     6 1   
     7     2    23 1   
     8     3     4 1   
     9     3     8 1   
    10     3    10 1   
    11     4     5 1   
    12     4    24 1   
    13     4    25 1   
    14     5    14 1   
    15     5    26 1   
    16     5    27 1   
    17     6     7 1   
    18     6    28 1   
    19     6    29 1   
    20     7     8 1   
    21     7    30 1   
    22     7    31 1   
    23     8     9 1   
    24     8    32 1   
    25     9    33 1   
    26    10    34 1   
    27    10    35 1   
    28    10    36 1   
    29    11    19 1   
    30    11    37 1   
    31    12    17 1   
    32    13    18 1   
    33    14    16 1   
    34    14    38 1   
    35    15    16 ar  
    36    15    20 ar  
    37    15    39 1   
    38    16    17 ar  
    39    17    18 ar  
    40    18    19 ar  
    41    19    20 ar  
    42    20    40 1   
@<TRIPOS>SUBSTRUCTURE
     1 5CK         1 TEMP              0 ****  ****    0 ROOT
