@<TRIPOS>MOLECULE
5CL
   12    12     1     0     0
SMALL
abcg2


@<TRIPOS>ATOM
      1 C1           1.2260     1.1240     0.0440 ca         1 5CL       0.127000
      2 C2           0.0280     1.8130     0.0400 ca         1 5CL      -0.087000
      3 C3          -1.1660     1.1150     0.0350 ca         1 5CL       0.127000
      4 C4          -1.1740    -0.2760     0.0340 ca         1 5CL       0.118000
      5 C5           0.0380    -0.9640     0.0380 ca         1 5CL       0.125000
      6 C6           1.2440    -0.2670     0.0430 ca         1 5CL       0.118000
      7 CL1         -2.6510    -1.1340     0.0280 cl         1 5CL      -0.128000
      8 CL2          0.0440    -2.6720     0.0370 cl         1 5CL      -0.129000
      9 CL3          2.7270    -1.1140     0.0490 cl         1 5CL      -0.128000
     10 CL4         -2.6410     1.9890     0.0300 cl         1 5CL      -0.147000
     11 CL5          2.6950     2.0080     0.0500 cl         1 5CL      -0.147000
     12 H2           0.0240     2.8930     0.0400 ha         1 5CL       0.152000
@<TRIPOS>BOND
     1     1     2 ar  
     2     1     6 ar  
     3     1    11 1   
     4     2     3 ar  
     5     2    12 1   
     6     3     4 ar  
     7     3    10 1   
     8     4     5 ar  
     9     4     7 1   
    10     5     6 ar  
    11     5     8 1   
    12     6     9 1   
@<TRIPOS>SUBSTRUCTURE
     1 5CL         1 TEMP              0 ****  ****    0 ROOT
