@<TRIPOS>MOLECULE
5CL
   12    12     1     0     0
SMALL
No Charge or Current Charge


@<TRIPOS>ATOM
      1 C1           1.2470     1.1380     0.0440 ca         1 5CL       0.127000
      2 C2           0.0280     1.8330     0.0400 ca         1 5CL      -0.087000
      3 C3          -1.1870     1.1290     0.0350 ca         1 5CL       0.127000
      4 C4          -1.1880    -0.2820     0.0340 ca         1 5CL       0.118000
      5 C5           0.0380    -0.9830     0.0380 ca         1 5CL       0.125000
      6 C6           1.2580    -0.2730     0.0430 ca         1 5CL       0.118000
      7 Cl1         -2.7210    -1.1660     0.0280 cl         1 5CL      -0.128000
      8 Cl2          0.0440    -2.7540     0.0370 cl         1 5CL      -0.129000
      9 Cl3          2.7970    -1.1460     0.0490 cl         1 5CL      -0.128000
     10 Cl4         -2.6980     2.0400     0.0300 cl         1 5CL      -0.147000
     11 Cl5          2.7510     2.0600     0.0500 cl         1 5CL      -0.147000
     12 H2           0.0240     2.9200     0.0400 ha         1 5CL       0.152000
@<TRIPOS>BOND
     1     1     2 ar  
     2     1     6 ar  
     3     1    11 1   
     4     2     3 ar  
     5     2    12 1   
     6     3     4 ar  
     7     3    10 1   
     8     4     5 ar  
     9     4     7 1   
    10     5     6 ar  
    11     5     8 1   
    12     6     9 1   
@<TRIPOS>SUBSTRUCTURE
     1 5CL         1 TEMP              0 ****  ****    0 ROOT
