@<TRIPOS>MOLECULE
5CN
   46    48     1     0     0
SMALL
No Charge or Current Charge


@<TRIPOS>ATOM
      1 C1          -2.0460     3.9360    -1.2130 ca         1 5CN       0.222000
      2 C2          -1.9340     4.3920    -2.5390 ca         1 5CN      -0.125000
      3 C3          -1.5750     5.7220    -2.8120 ca         1 5CN      -0.103000
      4 C7          -4.6550     1.5520    -1.3990 c6         1 5CN      -0.106900
      5 C8          -3.7420     2.2560    -0.3670 c6         1 5CN       0.189800
      6 C9          -1.7050     1.4520    -1.6010 c6         1 5CN       0.189800
      7 C10         -2.6050     0.7250    -2.6330 c6         1 5CN      -0.106900
      8 C11         -3.9630     0.3070    -2.0130 c6         1 5CN      -0.059700
      9 C12         -4.8720    -0.4020    -3.0500 c3         1 5CN      -0.086100
     10 C14         -1.7710     4.8960     2.4350 c          1 5CN       0.541600
     11 C15         -1.9620     3.9020     3.5230 cc         1 5CN       0.080500
     12 C16         -1.9170     4.1510     4.8710 cd         1 5CN      -0.115000
     13 C19         -2.6120     0.5860     4.6870 cg         1 5CN       0.236000
     14 C4          -1.3200     6.6160    -1.7580 ca         1 5CN      -0.120300
     15 C5          -1.4230     6.1660    -0.4270 ca         1 5CN      -0.114000
     16 C6          -1.7860     4.8290    -0.1440 ca         1 5CN      -0.037000
     17 N1          -2.4190     2.5920    -0.9610 nh         1 5CN      -0.802400
     18 O1           0.4690     8.1320    -2.3480 oh         1 5CN      -0.652000
     19 N2          -1.8800     4.3160     1.1810 ns         1 5CN      -0.131000
     20 O2          -1.5490     6.0870     2.6350 o          1 5CN      -0.574100
     21 C17         -2.1580     2.9210     5.5220 cd         1 5CN      -0.131000
     22 C18         -2.3400     1.9780     4.5450 cc         1 5CN       0.220000
     23 O3          -2.2230     2.5620     3.3020 os         1 5CN      -0.214000
     24 N3          -2.8390    -0.5520     4.8300 n1         1 5CN      -0.411000
     25 H2          -2.1360     3.7150    -3.3630 ha         1 5CN       0.118000
     26 H3          -1.4960     6.0570    -3.8450 ha         1 5CN       0.126000
     27 H71         -5.5970     1.2610    -0.9150 hc         1 5CN       0.047450
     28 H72         -4.9180     2.2630    -2.1940 hc         1 5CN       0.047450
     29 H81         -4.2460     3.1660    -0.0070 h1         1 5CN       0.053950
     30 H82         -3.6040     1.6020     0.5070 h1         1 5CN       0.053950
     31 H91         -1.3890     0.7350    -0.8280 h1         1 5CN       0.053950
     32 H92         -0.7880     1.8000    -2.1000 h1         1 5CN       0.053950
     33 H101        -2.7770     1.3840    -3.4950 hc         1 5CN       0.047450
     34 H102        -2.0770    -0.1580    -3.0170 hc         1 5CN       0.047450
     35 H11         -3.7750    -0.4220    -1.2120 hc         1 5CN       0.046700
     36 H121        -5.1120     0.2600    -3.8910 hc         1 5CN       0.034700
     37 H122        -4.3850    -1.2960    -3.4570 hc         1 5CN       0.034700
     38 H123        -5.8180    -0.7200    -2.5940 hc         1 5CN       0.034700
     39 H131        -1.5190     8.4240    -2.9090 h1         1 5CN       0.053200
     40 H132        -1.1780     8.6910    -1.1940 h1         1 5CN       0.053200
     41 H16         -1.7320     5.1120     5.3410 ha         1 5CN       0.167000
     42 H5          -1.2120     6.8680     0.3730 ha         1 5CN       0.142000
     43 HO1          0.9270     7.6500    -1.6250 ho         1 5CN       0.442000
     44 HN2         -2.0660     3.3200     1.2010 hn         1 5CN       0.189000
     45 H17         -2.1950     2.7480     6.5930 ha         1 5CN       0.159000
     46 C13         -0.9300     8.0580    -2.0570 c3         1 5CN       0.203900
@<TRIPOS>BOND
     1     1     2 ar  
     2     1    16 ar  
     3     1    17 1   
     4     2     3 ar  
     5     2    25 1   
     6     3    14 ar  
     7     3    26 1   
     8     4     5 1   
     9     4     8 1   
    10     4    27 1   
    11     4    28 1   
    12     5    17 1   
    13     5    29 1   
    14     5    30 1   
    15     6     7 1   
    16     6    17 1   
    17     6    31 1   
    18     6    32 1   
    19     7     8 1   
    20     7    33 1   
    21     7    34 1   
    22     8     9 1   
    23     8    35 1   
    24     9    36 1   
    25     9    37 1   
    26     9    38 1   
    27    10    11 1   
    28    10    19 1   
    29    10    20 2   
    30    11    12 2   
    31    11    23 1   
    32    12    21 1   
    33    12    41 1   
    34    13    22 1   
    35    13    24 3   
    36    14    15 ar  
    37    14    46 1   
    38    15    16 ar  
    39    15    42 1   
    40    16    19 1   
    41    18    43 1   
    42    18    46 1   
    43    19    44 1   
    44    21    22 2   
    45    21    45 1   
    46    22    23 1   
    47    39    46 1   
    48    40    46 1   
@<TRIPOS>SUBSTRUCTURE
     1 5CN         1 TEMP              0 ****  ****    0 ROOT
