@<TRIPOS>MOLECULE
5CN
   46    48     1     0     0
SMALL
bcc


@<TRIPOS>ATOM
      1 C1          -1.9290     3.6670    -1.0720 ca         1 5CN       0.083600
      2 C2          -1.7100     4.0810    -2.3800 ca         1 5CN      -0.143000
      3 C3          -1.4000     5.4000    -2.6810 ca         1 5CN      -0.121000
      4 C7          -4.5310     1.7780    -1.4520 c6         1 5CN      -0.106900
      5 C8          -3.6200     2.1110    -0.2770 c6         1 5CN       0.189800
      6 C9          -1.6990     1.2440    -1.4720 c6         1 5CN       0.189800
      7 C10         -2.5790     0.7940    -2.6390 c6         1 5CN      -0.106900
      8 C11         -4.0230     0.5510    -2.2040 c6         1 5CN      -0.059700
      9 C12         -4.9130     0.2010    -3.3870 c3         1 5CN      -0.086100
     10 C14         -2.1220     4.7980     2.4010 c          1 5CN       0.608600
     11 C15         -2.1660     3.9610     3.6170 cc         1 5CN       0.190200
     12 C16         -2.3660     4.3260     4.9120 cd         1 5CN      -0.198300
     13 C19         -1.9370     0.7440     4.9360 cg         1 5CN       0.146800
     14 C4          -1.3070     6.3470    -1.6720 ca         1 5CN      -0.120300
     15 C5          -1.4870     5.9470    -0.3510 ca         1 5CN      -0.132000
     16 C6          -1.7820     4.6250    -0.0450 ca         1 5CN       0.055600
     17 N1          -2.2340     2.3480    -0.6860 nh         1 5CN      -0.664000
     18 O1          -0.3290     8.0170    -3.1680 oh         1 5CN      -0.589800
     19 N2          -1.8720     4.1290     1.2590 ns         1 5CN      -0.457100
     20 O2          -2.3120     5.9980     2.4990 o          1 5CN      -0.574100
     21 C17         -2.3130     3.1330     5.6700 cd         1 5CN      -0.214300
     22 C18         -2.0850     2.1370     4.7710 cc         1 5CN       0.329700
     23 O3          -1.9950     2.6310     3.5220 os         1 5CN      -0.302800
     24 N3          -1.8170    -0.3910     5.0900 n1         1 5CN      -0.321800
     25 H2          -1.7870     3.3680    -3.1890 ha         1 5CN       0.136000
     26 H3          -1.2460     5.6830    -3.7150 ha         1 5CN       0.144000
     27 H71         -5.5450     1.6070    -1.0790 hc         1 5CN       0.047450
     28 H72         -4.5850     2.6360    -2.1340 hc         1 5CN       0.047450
     29 H81         -3.9940     2.9840     0.2590 h1         1 5CN       0.053950
     30 H82         -3.6270     1.2750     0.4310 h1         1 5CN       0.053950
     31 H91         -1.5760     0.3960    -0.7880 h1         1 5CN       0.053950
     32 H92         -0.7000     1.5110    -1.8180 h1         1 5CN       0.053950
     33 H101        -2.5740     1.5390    -3.4410 hc         1 5CN       0.047450
     34 H102        -2.1520    -0.1180    -3.0630 hc         1 5CN       0.047450
     35 H11         -4.0310    -0.2950    -1.5040 hc         1 5CN       0.046700
     36 H121        -4.9370     1.0160    -4.1140 hc         1 5CN       0.034700
     37 H122        -4.5550    -0.6920    -3.9030 hc         1 5CN       0.034700
     38 H123        -5.9390     0.0110    -3.0680 hc         1 5CN       0.034700
     39 H131        -1.9790     8.3330    -2.0730 h1         1 5CN       0.053200
     40 H132        -0.5170     8.2520    -1.1100 h1         1 5CN       0.053200
     41 H16         -2.5340     5.3240     5.2810 ha         1 5CN       0.185000
     42 H5          -1.3640     6.6730     0.4390 ha         1 5CN       0.160000
     43 HO1          0.5430     7.6190    -3.0840 ho         1 5CN       0.403000
     44 HN2         -1.7690     3.1200     1.2920 hn         1 5CN       0.355500
     45 H17         -2.4250     3.0180     6.7360 ha         1 5CN       0.177000
     46 C13         -1.0290     7.8010    -1.9700 c3         1 5CN       0.180700
@<TRIPOS>BOND
     1     1     2 ar  
     2     1    16 ar  
     3     1    17 1   
     4     2     3 ar  
     5     2    25 1   
     6     3    14 ar  
     7     3    26 1   
     8     4     5 1   
     9     4     8 1   
    10     4    27 1   
    11     4    28 1   
    12     5    17 1   
    13     5    29 1   
    14     5    30 1   
    15     6     7 1   
    16     6    17 1   
    17     6    31 1   
    18     6    32 1   
    19     7     8 1   
    20     7    33 1   
    21     7    34 1   
    22     8     9 1   
    23     8    35 1   
    24     9    36 1   
    25     9    37 1   
    26     9    38 1   
    27    10    11 1   
    28    10    19 1   
    29    10    20 2   
    30    11    12 2   
    31    11    23 1   
    32    12    21 1   
    33    12    41 1   
    34    13    22 1   
    35    13    24 3   
    36    14    15 ar  
    37    14    46 1   
    38    15    16 ar  
    39    15    42 1   
    40    16    19 1   
    41    18    43 1   
    42    18    46 1   
    43    19    44 1   
    44    21    22 2   
    45    21    45 1   
    46    22    23 1   
    47    39    46 1   
    48    40    46 1   
@<TRIPOS>SUBSTRUCTURE
     1 5CN         1 TEMP              0 ****  ****    0 ROOT
