@<TRIPOS>MOLECULE
5CO
   57    59     1     0     0
SMALL
abcg2


@<TRIPOS>ATOM
      1 CAA         -3.3380     5.2500     2.0500 c3         1 5CO      -0.090100
      2 CAB         -5.9280     0.2430     0.2440 c3         1 5CO      -0.084100
      3 OAD         -2.0000    -3.3280     1.9260 o          1 5CO      -0.521000
      4 OAE          2.7300    -1.2040    -2.6780 o          1 5CO      -0.532500
      5 OAF          3.7640     1.0810    -2.8520 o          1 5CO      -0.532500
      6 CLAG        -4.8560    -3.2140     1.1280 cl         1 5CO      -0.144000
      7 CAH          1.5950     2.1220    -1.0790 ca         1 5CO       0.050000
      8 CAI          0.4850     2.6600    -0.4520 ca         1 5CO      -0.236000
      9 CAJ          0.5960    -0.0670    -0.9870 ca         1 5CO       0.045000
     10 CAK         -3.1340     3.8100     1.6000 c3         1 5CO      -0.082400
     11 CAL         -5.1850    -0.7020    -0.7010 c3         1 5CO      -0.035200
     12 CAM         -1.7940     3.6360     0.9170 c3         1 5CO       0.162600
     13 CAN          4.7670    -1.7850     1.0180 c6         1 5CO       0.163800
     14 CAO          5.9030     0.2790     0.7290 c6         1 5CO       0.163800
     15 CAP          3.6180    -1.3010     0.1540 c6         1 5CO       0.187300
     16 CAQ          4.7790     0.8170    -0.1360 c6         1 5CO       0.187300
     17 NAR         -2.8300    -0.2020    -0.4930 nc         1 5CO      -0.624300
     18 NAS         -1.3700    -1.4610     0.7940 ns         1 5CO      -0.407400
     19 OAT         -1.6710     2.2650     0.5430 os         1 5CO      -0.324100
     20 CAU          1.6540     0.7600    -1.3420 ca         1 5CO      -0.359500
     21 CAV         -0.5840     1.8410    -0.0870 ca         1 5CO       0.253100
     22 CAW         -3.8380    -1.0550    -0.1560 cc         1 5CO       0.209400
     23 CAX         -3.6110    -2.1250     0.6580 cd         1 5CO      -0.095200
     24 CAY         -0.5220     0.4650    -0.3720 ca         1 5CO      -0.223900
     25 CAZ         -1.6510    -0.4190    -0.0160 cd         1 5CO       0.574500
     26 CBA         -2.3030    -2.4040     1.1960 c          1 5CO       0.570200
     27 NBB          5.4010    -0.6740     1.6950 n3         1 5CO      -0.720600
     28 NBC          4.1170    -0.3080    -0.8000 n3         1 5CO      -0.707500
     29 HAA         -3.2830     5.9410     1.2080 hc         1 5CO       0.038700
     30 HAAA        -4.3150     5.3720     2.5160 hc         1 5CO       0.038700
     31 HAAB        -2.5840     5.5520     2.7790 hc         1 5CO       0.038700
     32 HAB         -5.3540     1.1520     0.4240 hc         1 5CO       0.039700
     33 HABA        -6.8850     0.5300    -0.1880 hc         1 5CO       0.039700
     34 HABB        -6.1220    -0.2310     1.2060 hc         1 5CO       0.039700
     35 HAC          7.2480    -1.6650     2.0990 h1         1 5CO       0.034700
     36 HACA         6.8730    -0.2650     3.1160 h1         1 5CO       0.034700
     37 HACB         6.0070    -1.7820     3.3560 h1         1 5CO       0.034700
     38 HAH          2.4060     2.7780    -1.3630 ha         1 5CO       0.137000
     39 HAI          0.4650     3.7220    -0.2530 ha         1 5CO       0.129000
     40 HAJ          0.6270    -1.1260    -1.2130 ha         1 5CO       0.144000
     41 HAK         -3.1930     3.1380     2.4590 hc         1 5CO       0.060200
     42 HAKA        -3.9290     3.5190     0.9100 hc         1 5CO       0.060200
     43 HAL         -5.7800    -1.5990    -0.8730 hc         1 5CO       0.066700
     44 HALA        -5.0410    -0.2160    -1.6670 hc         1 5CO       0.066700
     45 HAM         -1.7310     4.2760     0.0300 h1         1 5CO       0.042200
     46 HAMA        -0.9760     3.9120     1.5920 h1         1 5CO       0.042200
     47 HAN          4.3620    -2.4780     1.7590 h1         1 5CO       0.046200
     48 HANA         5.4790    -2.3490     0.3930 h1         1 5CO       0.046200
     49 HAO          6.6770    -0.1630     0.0780 h1         1 5CO       0.046200
     50 HAOA         6.3610     1.1190     1.2540 h1         1 5CO       0.046200
     51 HAP          3.1940    -2.1490    -0.3800 h1         1 5CO       0.058950
     52 HAPA         2.8410    -0.8660     0.7960 h1         1 5CO       0.058950
     53 HAQ          4.0710     1.3790     0.4860 h1         1 5CO       0.058950
     54 HAQA         5.1990     1.4900    -0.8790 h1         1 5CO       0.058950
     55 HNAS        -0.4330    -1.5620     1.1660 hn         1 5CO       0.331500
     56 SBD          3.1060     0.0570    -2.0590 sy         1 5CO       1.155600
     57 CAC          6.4350    -1.1210     2.6010 c3         1 5CO       0.153100
@<TRIPOS>BOND
     1     1    10 1   
     2     1    29 1   
     3     1    30 1   
     4     1    31 1   
     5     2    11 1   
     6     2    32 1   
     7     2    33 1   
     8     2    34 1   
     9     3    26 2   
    10     4    56 2   
    11     5    56 2   
    12     6    23 1   
    13     7     8 ar  
    14     7    20 ar  
    15     7    38 1   
    16     8    21 ar  
    17     8    39 1   
    18     9    20 ar  
    19     9    24 ar  
    20     9    40 1   
    21    10    12 1   
    22    10    41 1   
    23    10    42 1   
    24    11    22 1   
    25    11    43 1   
    26    11    44 1   
    27    12    19 1   
    28    12    45 1   
    29    12    46 1   
    30    13    15 1   
    31    13    27 1   
    32    13    47 1   
    33    13    48 1   
    34    14    16 1   
    35    14    27 1   
    36    14    49 1   
    37    14    50 1   
    38    15    28 1   
    39    15    51 1   
    40    15    52 1   
    41    16    28 1   
    42    16    53 1   
    43    16    54 1   
    44    17    22 1   
    45    17    25 2   
    46    18    25 1   
    47    18    26 1   
    48    18    55 1   
    49    19    21 1   
    50    20    56 1   
    51    21    24 ar  
    52    22    23 2   
    53    23    26 1   
    54    24    25 1   
    55    27    57 1   
    56    28    56 1   
    57    35    57 1   
    58    36    57 1   
    59    37    57 1   
@<TRIPOS>SUBSTRUCTURE
     1 5CO         1 TEMP              0 ****  ****    0 ROOT
