@<TRIPOS>MOLECULE
5CO
   57    59     1     0     0
SMALL
No Charge or Current Charge


@<TRIPOS>ATOM
      1 CAA         -3.1680     5.7760     1.5170 c3         1 5CO      -0.090100
      2 CAB         -6.2370     0.7980     0.3620 c3         1 5CO      -0.084100
      3 OAD         -2.5770    -2.9400     2.5560 o          1 5CO      -0.521000
      4 OAE          2.5030    -2.0560    -2.0260 o          1 5CO      -0.532500
      5 OAF          3.3480     0.1370    -3.0640 o          1 5CO      -0.532500
      6 ClAG        -5.4580    -2.6180     1.7620 cl         1 5CO      -0.144000
      7 CAH          1.5890     1.6790    -1.0870 ca         1 5CO       0.050000
      8 CAI          0.5320     2.4070    -0.5200 ca         1 5CO      -0.236000
      9 CAJ          0.3400    -0.3860    -0.7470 ca         1 5CO       0.045000
     10 CAK         -3.0130     4.2550     1.3230 c3         1 5CO      -0.082400
     11 CAL         -5.5220    -0.3090    -0.4400 c3         1 5CO      -0.035200
     12 CAM         -1.6820     3.8640     0.6540 c3         1 5CO       0.162600
     13 CAN          6.4470    -0.9330    -0.0050 c6         1 5CO       0.163800
     14 CAO          4.7440    -0.5860     1.7170 c6         1 5CO       0.163800
     15 CAP          5.3290    -1.1970    -1.0600 c6         1 5CO       0.187300
     16 CAQ          3.6210    -0.8440     0.6650 c6         1 5CO       0.187300
     17 NAR         -3.0950    -0.0440    -0.2680 nc         1 5CO      -0.624300
     18 NAS         -1.7630    -1.3410     1.1980 ns         1 5CO      -0.407400
     19 OAT         -1.6680     2.4340     0.5290 os         1 5CO      -0.324100
     20 CAU          1.4920     0.2830    -1.2000 ca         1 5CO      -0.359500
     21 CAV         -0.6280     1.7460    -0.0650 ca         1 5CO       0.253100
     22 CAW         -4.2110    -0.7310     0.1810 cc         1 5CO       0.209400
     23 CAX         -4.0890    -1.7240     1.1420 cd         1 5CO      -0.095200
     24 CAY         -0.7230     0.3440    -0.1780 ca         1 5CO      -0.223900
     25 CAZ         -1.9230    -0.3660     0.2680 cd         1 5CO       0.574500
     26 CBA         -2.7740    -2.0800     1.7100 c          1 5CO       0.570200
     27 NBB          6.0150    -1.2950     1.3790 n3         1 5CO      -0.720600
     28 NBC          4.0560    -0.5020    -0.7210 n3         1 5CO      -0.707500
     29 HAA         -3.1340     6.2960     0.5520 hc         1 5CO       0.038700
     30 HAAA        -4.1280     6.0050     1.9960 hc         1 5CO       0.038700
     31 HAAB        -2.3660     6.1710     2.1520 hc         1 5CO       0.038700
     32 HAB         -5.6060     1.6920     0.4330 hc         1 5CO       0.039700
     33 HABA        -7.1780     1.0780    -0.1250 hc         1 5CO       0.039700
     34 HABB        -6.4640     0.4540     1.3790 hc         1 5CO       0.039700
     35 HAC          7.3530    -0.0190     2.4450 h1         1 5CO       0.034700
     36 HACA         6.7400    -1.4040     3.3790 h1         1 5CO       0.034700
     37 HACB         7.9760    -1.6560     2.1290 h1         1 5CO       0.034700
     38 HAH          2.4820     2.2020    -1.4300 ha         1 5CO       0.137000
     39 HAI          0.6370     3.4840    -0.4380 ha         1 5CO       0.129000
     40 HAJ          0.2610    -1.4690    -0.8430 ha         1 5CO       0.144000
     41 HAK         -3.0840     3.7590     2.3000 hc         1 5CO       0.060200
     42 HAKA        -3.8450     3.8840     0.7120 hc         1 5CO       0.060200
     43 HAL         -6.1920    -1.1710    -0.5410 hc         1 5CO       0.066700
     44 HALA        -5.3520     0.0540    -1.4610 hc         1 5CO       0.066700
     45 HAM         -1.6140     4.3410    -0.3330 h1         1 5CO       0.042200
     46 HAMA        -0.8430     4.2100     1.2720 h1         1 5CO       0.042200
     47 HAN          7.3410    -1.5080    -0.2890 h1         1 5CO       0.046200
     48 HANA         6.7230     0.1310    -0.0500 h1         1 5CO       0.046200
     49 HAO          4.9210     0.4980     1.7770 h1         1 5CO       0.046200
     50 HAOA         4.3800    -0.9060     2.7040 h1         1 5CO       0.046200
     51 HAP          5.7000    -0.8680    -2.0420 h1         1 5CO       0.058950
     52 HAPA         5.1640    -2.2830    -1.1270 h1         1 5CO       0.058950
     53 HAQ          3.3260    -1.9020     0.7210 h1         1 5CO       0.058950
     54 HAQA         2.7460    -0.2500     0.9650 h1         1 5CO       0.058950
     55 HNAS        -0.8440    -1.5330     1.5670 hn         1 5CO       0.331500
     56 SBD          2.8570    -0.6370    -1.9180 sy         1 5CO       1.155600
     57 CAC          7.0770    -1.0800     2.3850 c3         1 5CO       0.153100
@<TRIPOS>BOND
     1     1    10 1   
     2     1    29 1   
     3     1    30 1   
     4     1    31 1   
     5     2    11 1   
     6     2    32 1   
     7     2    33 1   
     8     2    34 1   
     9     3    26 2   
    10     4    56 2   
    11     5    56 2   
    12     6    23 1   
    13     7     8 ar  
    14     7    20 ar  
    15     7    38 1   
    16     8    21 ar  
    17     8    39 1   
    18     9    20 ar  
    19     9    24 ar  
    20     9    40 1   
    21    10    12 1   
    22    10    41 1   
    23    10    42 1   
    24    11    22 1   
    25    11    43 1   
    26    11    44 1   
    27    12    19 1   
    28    12    45 1   
    29    12    46 1   
    30    13    15 1   
    31    13    27 1   
    32    13    47 1   
    33    13    48 1   
    34    14    16 1   
    35    14    27 1   
    36    14    49 1   
    37    14    50 1   
    38    15    28 1   
    39    15    51 1   
    40    15    52 1   
    41    16    28 1   
    42    16    53 1   
    43    16    54 1   
    44    17    22 1   
    45    17    25 2   
    46    18    25 1   
    47    18    26 1   
    48    18    55 1   
    49    19    21 1   
    50    20    56 1   
    51    21    24 ar  
    52    22    23 2   
    53    23    26 1   
    54    24    25 1   
    55    27    57 1   
    56    28    56 1   
    57    35    57 1   
    58    36    57 1   
    59    37    57 1   
@<TRIPOS>SUBSTRUCTURE
     1 5CO         1 TEMP              0 ****  ****    0 ROOT
