@<TRIPOS>MOLECULE
5CP
   47    50     1     0     0
SMALL
bcc


@<TRIPOS>ATOM
      1 C4          -1.6400    -1.7780     0.1460 ca         1 5CP       0.783200
      2 C5          -1.1040    -3.0650     0.2540 ca         1 5CP      -0.555600
      3 C6           0.2840    -3.1610     0.1790 ca         1 5CP       0.770200
      4 N1           1.0600    -2.0720     0.0150 nb         1 5CP      -0.866000
      5 N3          -0.8800    -0.7010    -0.0200 nb         1 5CP      -0.865000
      6 C1U         -5.8160     3.7460     0.6160 cx         1 5CP      -0.124400
      7 C1W         -6.0140     3.5550    -0.8500 cx         1 5CP      -0.124400
      8 C1T         -4.7650     3.0320    -0.1920 cx         1 5CP      -0.069400
      9 C1R         -4.5350     1.5900    -0.0350 cc         1 5CP      -0.044600
     10 C1S         -3.3470     0.8850    -0.0620 cd         1 5CP      -0.298300
     11 N1Q         -5.5020     0.6840     0.1750 na         1 5CP      -0.004600
     12 N1P         -5.0400    -0.5670     0.2890 nc         1 5CP      -0.586800
     13 C1H         -3.7330    -0.4550     0.1460 cd         1 5CP       0.578200
     14 N1G         -2.9870    -1.6190     0.2160 nu         1 5CP      -0.836600
     15 N1X          0.9320    -4.3330     0.2640 nu         1 5CP      -0.879900
     16 C1Y          0.2840    -5.6020     0.4610 c3         1 5CP       0.223100
     17 C2           0.4360    -0.9160    -0.0750 ca         1 5CP       0.979900
     18 N1I          1.1570     0.2350    -0.2450 nu         1 5CP      -0.739300
     19 C1J          2.5190     0.4720    -0.3270 ca         1 5CP       0.201600
     20 C1O          2.9120     1.8070    -0.4970 ca         1 5CP      -0.178000
     21 C1N          4.2460     2.1520    -0.5850 ca         1 5CP      -0.082500
     22 C1K          3.5160    -0.5060    -0.2540 ca         1 5CP      -0.178000
     23 C1L          4.8520    -0.1400    -0.3420 ca         1 5CP      -0.082500
     24 C1M          5.2400     1.1810    -0.5080 ca         1 5CP      -0.132300
     25 C1V          6.6990     1.5600    -0.5840 c3         1 5CP       0.042000
     26 C1Z          7.2210     1.9260     0.7270 c1         1 5CP       0.212700
     27 N1A          7.6170     2.2120     1.7690 n1         1 5CP      -0.376800
     28 H5          -1.7400    -3.9280     0.3860 ha         1 5CP       0.149000
     29 H1UA        -6.4180     3.1560     1.2960 hc         1 5CP       0.075200
     30 H1W         -6.7540     2.8350    -1.1790 hc         1 5CP       0.075200
     31 H1WA        -5.9110     4.4110    -1.5040 hc         1 5CP       0.075200
     32 H1T         -3.8540     3.5850    -0.3840 hc         1 5CP       0.097700
     33 H1S         -2.3600     1.2800    -0.2100 ha         1 5CP       0.183000
     34 HN1Q        -6.4940     0.8420     0.2470 hn         1 5CP       0.320700
     35 HN1G        -3.5310    -2.4570     0.3590 hn         1 5CP       0.455800
     36 HN1X         1.9360    -4.3010     0.2150 hn         1 5CP       0.450800
     37 H1Y         -0.2670    -5.6390     1.4040 h1         1 5CP       0.039367
     38 H1YA        -0.4120    -5.8360    -0.3470 h1         1 5CP       0.039367
     39 H1YB         1.0440    -6.3780     0.4840 h1         1 5CP       0.039367
     40 HN1I         0.5720     1.0540    -0.3060 hn         1 5CP       0.453800
     41 H1O          2.1580     2.5830    -0.5610 ha         1 5CP       0.149000
     42 H1N          4.5120     3.1940    -0.7170 ha         1 5CP       0.130500
     43 H1K          3.2510    -1.5420    -0.1280 ha         1 5CP       0.149000
     44 H1L          5.6040    -0.9180    -0.2820 ha         1 5CP       0.130500
     45 H1V          7.3040     0.7350    -0.9660 hc         1 5CP       0.072700
     46 H1VA         6.8570     2.4050    -1.2570 hc         1 5CP       0.072700
     47 H1U         -5.5740     4.7350     0.9820 hc         1 5CP       0.075200
@<TRIPOS>BOND
     1     1     2 ar  
     2     1     5 ar  
     3     1    14 1   
     4     2     3 ar  
     5     2    28 1   
     6     3     4 ar  
     7     3    15 1   
     8     4    17 ar  
     9     5    17 ar  
    10     6     7 1   
    11     6     8 1   
    12     6    29 1   
    13     6    47 1   
    14     7     8 1   
    15     7    30 1   
    16     7    31 1   
    17     8     9 1   
    18     8    32 1   
    19     9    10 2   
    20     9    11 1   
    21    10    13 1   
    22    10    33 1   
    23    11    12 1   
    24    11    34 1   
    25    12    13 2   
    26    13    14 1   
    27    14    35 1   
    28    15    16 1   
    29    15    36 1   
    30    16    37 1   
    31    16    38 1   
    32    16    39 1   
    33    17    18 1   
    34    18    19 1   
    35    18    40 1   
    36    19    20 ar  
    37    19    22 ar  
    38    20    21 ar  
    39    20    41 1   
    40    21    24 ar  
    41    21    42 1   
    42    22    23 ar  
    43    22    43 1   
    44    23    24 ar  
    45    23    44 1   
    46    24    25 1   
    47    25    26 1   
    48    25    45 1   
    49    25    46 1   
    50    26    27 3   
@<TRIPOS>SUBSTRUCTURE
     1 5CP         1 TEMP              0 ****  ****    0 ROOT
