@<TRIPOS>MOLECULE
5CP
   47    50     1     0     0
SMALL
No Charge or Current Charge


@<TRIPOS>ATOM
      1 C4          -1.6390    -1.7090     0.0650 ca         1 5CP       0.454900
      2 C5          -1.1310    -3.0030     0.1340 ca         1 5CP      -0.407000
      3 C6           0.2520    -3.1430     0.0370 ca         1 5CP       0.441900
      4 N1           1.0640    -2.0950    -0.1130 nb         1 5CP      -0.340000
      5 N3          -0.8420    -0.6450    -0.0860 nb         1 5CP      -0.339000
      6 C1U         -6.0030     3.7060     0.8190 cx         1 5CP      -0.124400
      7 C1W         -6.0810     3.6380    -0.6890 cx         1 5CP      -0.124400
      8 C1T         -4.8760     3.0780     0.0320 cx         1 5CP      -0.069400
      9 C1R         -4.6650     1.6180     0.0870 cc         1 5CP      -0.095300
     10 C1S         -3.4990     0.9040     0.0600 cd         1 5CP      -0.215000
     11 N1Q         -5.6330     0.6080     0.1840 na         1 5CP      -0.004200
     12 N1P         -5.1140    -0.6820     0.2180 nc         1 5CP      -0.586800
     13 C1H         -3.8330    -0.4570     0.1390 cd         1 5CP       0.512900
     14 N1G         -3.0040    -1.5240     0.1480 nu         1 5CP      -0.891800
     15 N1X          0.8750    -4.3730     0.0860 nu         1 5CP      -0.935100
     16 C1Y          0.2430    -5.6940     0.2430 c3         1 5CP       0.223100
     17 C2           0.4700    -0.8940    -0.1550 ca         1 5CP       0.453900
     18 N1I          1.2540     0.2300    -0.3440 nu         1 5CP      -0.932900
     19 C1J          2.6300     0.4790    -0.3590 ca         1 5CP       0.340000
     20 C1O          3.1010     1.5860    -1.0830 ca         1 5CP      -0.160000
     21 C1N          4.4740     1.8890    -1.1180 ca         1 5CP      -0.064500
     22 C1K          3.5490    -0.3110     0.3560 ca         1 5CP      -0.160000
     23 C1L          4.9230    -0.0130     0.3250 ca         1 5CP      -0.064500
     24 C1M          5.3940     1.0880    -0.4160 ca         1 5CP      -0.132300
     25 C1V          6.8860     1.4150    -0.4490 c3         1 5CP       0.042000
     26 C1Z          7.2610     2.3290     0.6370 c1         1 5CP       0.301900
     27 N1A          7.5860     3.0540     1.4900 n1         1 5CP      -0.466000
     28 H5          -1.7830    -3.8590     0.2550 ha         1 5CP       0.131000
     29 H1UA        -6.6590     3.0560     1.3920 hc         1 5CP       0.075200
     30 H1W         -6.7890     2.9410    -1.1320 hc         1 5CP       0.075200
     31 H1WA        -5.9510     4.5630    -1.2460 hc         1 5CP       0.075200
     32 H1T         -3.9500     3.6440    -0.0420 hc         1 5CP       0.097700
     33 H1S         -2.5050     1.3240    -0.0090 ha         1 5CP       0.165000
     34 HN1Q        -6.6390     0.7670     0.2300 hn         1 5CP       0.371000
     35 HN1G        -3.5310    -2.3860     0.2360 hn         1 5CP       0.511000
     36 HN1X         1.8920    -4.3420    -0.0030 hn         1 5CP       0.506000
     37 H1Y         -0.3130    -5.7460     1.1890 h1         1 5CP       0.039367
     38 H1YA        -0.4540    -5.8880    -0.5840 h1         1 5CP       0.039367
     39 H1YB         1.0050    -6.4860     0.2460 h1         1 5CP       0.039367
     40 HN1I         0.6910     1.0390    -0.5970 hn         1 5CP       0.509000
     41 H1O          2.4040     2.2140    -1.6310 ha         1 5CP       0.131000
     42 H1N          4.8200     2.7470    -1.6910 ha         1 5CP       0.112500
     43 H1K          3.2080    -1.1480     0.9540 ha         1 5CP       0.131000
     44 H1L          5.6190    -0.6350     0.8850 ha         1 5CP       0.112500
     45 H1V          7.4860     0.5020    -0.3600 hc         1 5CP       0.072700
     46 H1VA         7.1620     1.8760    -1.4040 hc         1 5CP       0.072700
     47 H1U         -5.8210     4.6780     1.2730 hc         1 5CP       0.075200
@<TRIPOS>BOND
     1     1     2 ar  
     2     1     5 ar  
     3     1    14 1   
     4     2     3 ar  
     5     2    28 1   
     6     3     4 ar  
     7     3    15 1   
     8     4    17 ar  
     9     5    17 ar  
    10     6     7 1   
    11     6     8 1   
    12     6    29 1   
    13     6    47 1   
    14     7     8 1   
    15     7    30 1   
    16     7    31 1   
    17     8     9 1   
    18     8    32 1   
    19     9    10 2   
    20     9    11 1   
    21    10    13 1   
    22    10    33 1   
    23    11    12 1   
    24    11    34 1   
    25    12    13 2   
    26    13    14 1   
    27    14    35 1   
    28    15    16 1   
    29    15    36 1   
    30    16    37 1   
    31    16    38 1   
    32    16    39 1   
    33    17    18 1   
    34    18    19 1   
    35    18    40 1   
    36    19    20 ar  
    37    19    22 ar  
    38    20    21 ar  
    39    20    41 1   
    40    21    24 ar  
    41    21    42 1   
    42    22    23 ar  
    43    22    43 1   
    44    23    24 ar  
    45    23    44 1   
    46    24    25 1   
    47    25    26 1   
    48    25    45 1   
    49    25    46 1   
    50    26    27 3   
@<TRIPOS>SUBSTRUCTURE
     1 5CP         1 TEMP              0 ****  ****    0 ROOT
