@<TRIPOS>MOLECULE
5CQ
   43    45     1     0     0
SMALL
bcc


@<TRIPOS>ATOM
      1 C01          3.6640     1.4040    -0.0030 ca         1 5CQ      -0.226000
      2 C02          4.4930     0.2920    -0.0760 ca         1 5CQ       0.138100
      3 C03          3.9320    -0.9790    -0.0060 ca         1 5CQ      -0.165000
      4 C04          2.5590    -1.1590     0.1390 ca         1 5CQ      -0.034300
      5 C05          1.7150    -0.0400     0.2270 ca         1 5CQ      -0.107300
      6 C06          2.2970     1.2210     0.1450 ca         1 5CQ      -0.084000
      7 C07          0.2170    -0.1880     0.3480 c6         1 5CQ      -0.013400
      8 C08         -0.4620     0.0160    -1.0120 c6         1 5CQ      -0.061400
      9 C09         -1.9770    -0.1570    -0.9610 c5         1 5CQ      -0.055700
     10 C10         -2.6620     0.6570     0.1560 c5         1 5CQ      -0.038000
     11 C11         -1.9150     0.4700     1.4880 c6         1 5CQ      -0.069400
     12 C12         -0.4180     0.7360     1.3880 c6         1 5CQ      -0.065400
     13 C13         -2.4480    -1.6080    -0.7420 c5         1 5CQ      -0.069400
     14 C14         -3.7160    -1.5220     0.1310 c5         1 5CQ      -0.114400
     15 C15         -4.0330    -0.0280     0.2660 c5         1 5CQ       0.147100
     16 O01         -4.8510     0.4250    -0.7950 oh         1 5CQ      -0.595800
     17 C16         -2.7610     2.1420    -0.1760 c3         1 5CQ      -0.070100
     18 O02          5.8340     0.3840    -0.2160 oh         1 5CQ      -0.497100
     19 C17          2.0170    -2.5600     0.1940 c3         1 5CQ      -0.049800
     20 H1           4.0740     2.4060    -0.0620 ha         1 5CQ       0.130000
     21 H2           4.5820    -1.8440    -0.0700 ha         1 5CQ       0.143000
     22 H3           1.6690     2.1030     0.1960 ha         1 5CQ       0.129000
     23 H4           0.0050    -1.2080     0.6840 hc         1 5CQ       0.050700
     24 H5          -0.2210     1.0230    -1.3730 hc         1 5CQ       0.043700
     25 H6          -0.0370    -0.6760    -1.7470 hc         1 5CQ       0.043700
     26 H7          -2.3810     0.1900    -1.9170 hc         1 5CQ       0.061700
     27 H8          -2.3640     1.1220     2.2450 hc         1 5CQ       0.038200
     28 H9          -2.0510    -0.5510     1.8590 hc         1 5CQ       0.038200
     29 H10          0.0460     0.5680     2.3630 hc         1 5CQ       0.041700
     30 H11         -0.2350     1.7840     1.1360 hc         1 5CQ       0.041700
     31 H12         -2.6430    -2.0980    -1.6970 hc         1 5CQ       0.040700
     32 H13         -1.6790    -2.2040    -0.2470 hc         1 5CQ       0.040700
     33 H14         -4.5620    -2.0680    -0.2940 hc         1 5CQ       0.043200
     34 H15         -3.5410    -1.9600     1.1150 hc         1 5CQ       0.043200
     35 H16         -4.5070     0.1990     1.2320 h1         1 5CQ       0.035700
     36 H17         -5.6600    -0.0960    -0.7880 ho         1 5CQ       0.400000
     37 H18         -3.2220     2.3090    -1.1500 hc         1 5CQ       0.036367
     38 H19         -3.3520     2.6760     0.5720 hc         1 5CQ       0.036367
     39 H20         -1.7770     2.6110    -0.2050 hc         1 5CQ       0.036367
     40 H21          6.0990     1.3090    -0.2730 ho         1 5CQ       0.424000
     41 H22          1.5370    -2.7720     1.1510 hc         1 5CQ       0.043033
     42 H23          1.2710    -2.7380    -0.5830 hc         1 5CQ       0.043033
     43 H24          2.8120    -3.2920     0.0580 hc         1 5CQ       0.043033
@<TRIPOS>BOND
     1     1     2 ar  
     2     1     6 ar  
     3     1    20 1   
     4     2     3 ar  
     5     2    18 1   
     6     3     4 ar  
     7     3    21 1   
     8     4     5 ar  
     9     4    19 1   
    10     5     6 ar  
    11     5     7 1   
    12     6    22 1   
    13     7     8 1   
    14     7    12 1   
    15     7    23 1   
    16     8     9 1   
    17     8    24 1   
    18     8    25 1   
    19     9    10 1   
    20     9    13 1   
    21     9    26 1   
    22    10    11 1   
    23    10    15 1   
    24    10    17 1   
    25    11    12 1   
    26    11    27 1   
    27    11    28 1   
    28    12    29 1   
    29    12    30 1   
    30    13    14 1   
    31    13    31 1   
    32    13    32 1   
    33    14    15 1   
    34    14    33 1   
    35    14    34 1   
    36    15    16 1   
    37    15    35 1   
    38    16    36 1   
    39    17    37 1   
    40    17    38 1   
    41    17    39 1   
    42    18    40 1   
    43    19    41 1   
    44    19    42 1   
    45    19    43 1   
@<TRIPOS>SUBSTRUCTURE
     1 5CQ         1 TEMP              0 ****  ****    0 ROOT
