@<TRIPOS>MOLECULE
5CQ
   43    45     1     0     0
SMALL
No Charge or Current Charge


@<TRIPOS>ATOM
      1 C01          3.6140     1.4460    -0.2510 ca         1 5CQ      -0.208000
      2 C02          4.5240     0.3900    -0.1370 ca         1 5CQ       0.138100
      3 C03          4.0630    -0.9100     0.1020 ca         1 5CQ      -0.147000
      4 C04          2.6840    -1.1760     0.2330 ca         1 5CQ      -0.034300
      5 C05          1.7520    -0.1060     0.1220 ca         1 5CQ      -0.107300
      6 C06          2.2380     1.1990    -0.1230 ca         1 5CQ      -0.066000
      7 C07          0.2250    -0.3170     0.2530 c6         1 5CQ      -0.013400
      8 C08         -0.5090    -0.0020    -1.0880 c6         1 5CQ      -0.061400
      9 C09         -2.0540    -0.1440    -0.9790 c5         1 5CQ      -0.055700
     10 C10         -2.6680     0.6440     0.2220 c5         1 5CQ      -0.038000
     11 C11         -1.9120     0.3060     1.5570 c6         1 5CQ      -0.069400
     12 C12         -0.3740     0.5020     1.4350 c6         1 5CQ      -0.065400
     13 C13         -2.5880    -1.6020    -0.7770 c5         1 5CQ      -0.069400
     14 C14         -3.9390    -1.4460    -0.0060 c5         1 5CQ      -0.114400
     15 C15         -4.1400     0.0890     0.1800 c5         1 5CQ       0.170300
     16 O01         -4.9240     0.6220    -0.8930 oh         1 5CQ      -0.658000
     17 C16         -2.6190     2.1920     0.0170 c3         1 5CQ      -0.070100
     18 O02          5.8610     0.6240    -0.2600 oh         1 5CQ      -0.536100
     19 C17          2.2480    -2.6170     0.4880 c3         1 5CQ      -0.049800
     20 H1           3.9610     2.4590    -0.4390 ha         1 5CQ       0.112000
     21 H2           4.7840    -1.7180     0.1860 ha         1 5CQ       0.125000
     22 H3           1.5460     2.0320    -0.2190 ha         1 5CQ       0.111000
     23 H4           0.0260    -1.3670     0.4880 hc         1 5CQ       0.050700
     24 H5          -0.2680     1.0190    -1.4140 hc         1 5CQ       0.043700
     25 H6          -0.1340    -0.6670    -1.8780 hc         1 5CQ       0.043700
     26 H7          -2.4380     0.2500    -1.9290 hc         1 5CQ       0.061700
     27 H8          -2.2990     0.9280     2.3750 hc         1 5CQ       0.038200
     28 H9          -2.1010    -0.7300     1.8660 hc         1 5CQ       0.038200
     29 H10          0.1030     0.1840     2.3720 hc         1 5CQ       0.041700
     30 H11         -0.1360     1.5670     1.3310 hc         1 5CQ       0.041700
     31 H12         -2.7290    -2.1050    -1.7410 hc         1 5CQ       0.040700
     32 H13         -1.8990    -2.2320    -0.2050 hc         1 5CQ       0.040700
     33 H14         -4.7730    -1.9120    -0.5450 hc         1 5CQ       0.043200
     34 H15         -3.8890    -1.9520     0.9650 hc         1 5CQ       0.043200
     35 H16         -4.6540     0.2950     1.1300 h1         1 5CQ       0.035700
     36 H17         -5.7950     0.1710    -0.8550 ho         1 5CQ       0.439000
     37 H18         -3.1020     2.4920    -0.9210 hc         1 5CQ       0.036367
     38 H19         -3.1340     2.7140     0.8320 hc         1 5CQ       0.036367
     39 H20         -1.5960     2.5780    -0.0300 hc         1 5CQ       0.036367
     40 H21          5.9910     1.5820    -0.4240 ho         1 5CQ       0.463000
     41 H22          1.7250    -2.7080     1.4470 hc         1 5CQ       0.043033
     42 H23          1.5760    -2.9720    -0.3030 hc         1 5CQ       0.043033
     43 H24          3.1020    -3.3040     0.5180 hc         1 5CQ       0.043033
@<TRIPOS>BOND
     1     1     2 ar  
     2     1     6 ar  
     3     1    20 1   
     4     2     3 ar  
     5     2    18 1   
     6     3     4 ar  
     7     3    21 1   
     8     4     5 ar  
     9     4    19 1   
    10     5     6 ar  
    11     5     7 1   
    12     6    22 1   
    13     7     8 1   
    14     7    12 1   
    15     7    23 1   
    16     8     9 1   
    17     8    24 1   
    18     8    25 1   
    19     9    10 1   
    20     9    13 1   
    21     9    26 1   
    22    10    11 1   
    23    10    15 1   
    24    10    17 1   
    25    11    12 1   
    26    11    27 1   
    27    11    28 1   
    28    12    29 1   
    29    12    30 1   
    30    13    14 1   
    31    13    31 1   
    32    13    32 1   
    33    14    15 1   
    34    14    33 1   
    35    14    34 1   
    36    15    16 1   
    37    15    35 1   
    38    16    36 1   
    39    17    37 1   
    40    17    38 1   
    41    17    39 1   
    42    18    40 1   
    43    19    41 1   
    44    19    42 1   
    45    19    43 1   
@<TRIPOS>SUBSTRUCTURE
     1 5CQ         1 TEMP              0 ****  ****    0 ROOT
