@<TRIPOS>MOLECULE
5CR
   27    27     1     0     0
SMALL
abcg2


@<TRIPOS>ATOM
      1 CAA         -0.9830     3.0280     0.1440 c3         1 5CR      -0.179100
      2 CAL         -0.8100     1.6500    -0.4520 c          1 5CR       0.594100
      3 OAB         -0.3280     1.4960    -1.5670 o          1 5CR      -0.648100
      4 N           -1.2200     0.6410     0.3300 ns         1 5CR      -0.463900
      5 CA          -1.1210    -0.7570     0.0020 c3         1 5CR      -0.036300
      6 C           -2.3720    -1.5320     0.4820 c          1 5CR       0.716000
      7 O           -3.1390    -0.9480     1.2700 o          1 5CR      -0.724000
      8 OXT         -2.4700    -2.6980     0.0570 o          1 5CR      -0.724000
      9 CB           0.1310    -1.3940     0.6400 c3         1 5CR      -0.043100
     10 CG           1.3950    -0.6730     0.2770 ca         1 5CR      -0.044300
     11 CD1          1.8990     0.3370     1.0910 ca         1 5CR      -0.104500
     12 CE1          3.0410     1.0420     0.7310 ca         1 5CR      -0.116000
     13 CZ           3.6990     0.7420    -0.4540 ca         1 5CR      -0.132000
     14 CE2          3.2080    -0.2680    -1.2730 ca         1 5CR      -0.116000
     15 CD2          2.0660    -0.9650    -0.9090 ca         1 5CR      -0.104500
     16 HAA1        -0.0010     3.4790     0.2890 hc         1 5CR       0.043033
     17 HAA2        -1.5310     3.6630    -0.5510 hc         1 5CR       0.043033
     18 HAA3        -1.5020     3.0310     1.1010 hc         1 5CR       0.043033
     19 H           -1.6790     0.8550     1.2010 hn         1 5CR       0.323500
     20 HA          -1.0390    -0.8480    -1.0830 h1         1 5CR       0.068700
     21 HB1C         0.0080    -1.3930     1.7270 hc         1 5CR       0.053700
     22 HB2C         0.1830    -2.4370     0.3240 hc         1 5CR       0.053700
     23 HD1          1.3930     0.5750     2.0200 ha         1 5CR       0.109000
     24 HD2          1.6860    -1.7470    -1.5560 ha         1 5CR       0.109000
     25 HE1          3.4190     1.8230     1.3770 ha         1 5CR       0.093500
     26 HZ           4.5910     1.2870    -0.7370 ha         1 5CR       0.091000
     27 HE2          3.7170    -0.5130    -2.1970 ha         1 5CR       0.093500
@<TRIPOS>BOND
     1     1     2 1   
     2     1    16 1   
     3     1    17 1   
     4     1    18 1   
     5     2     3 2   
     6     2     4 1   
     7     4     5 1   
     8     4    19 1   
     9     5     6 1   
    10     5     9 1   
    11     5    20 1   
    12     6     7 1   
    13     6     8 1   
    14     9    10 1   
    15     9    21 1   
    16     9    22 1   
    17    10    11 ar  
    18    10    15 ar  
    19    11    12 ar  
    20    11    23 1   
    21    12    13 ar  
    22    12    25 1   
    23    13    14 ar  
    24    13    26 1   
    25    14    15 ar  
    26    14    27 1   
    27    15    24 1   
@<TRIPOS>SUBSTRUCTURE
     1 5CR         1 TEMP              0 ****  ****    0 ROOT
