@<TRIPOS>MOLECULE
5CR
   27    27     1     0     0
SMALL
No Charge or Current Charge


@<TRIPOS>ATOM
      1 CAA         -1.1330     3.0760     0.0520 c3         1 5CR      -0.179100
      2 CAL         -0.9170     1.6760    -0.5150 c          1 5CR       0.594100
      3 OAB         -0.4720     1.4850    -1.6380 o          1 5CR      -0.648100
      4 N           -1.2770     0.6540     0.3350 ns         1 5CR      -0.463900
      5 CA          -1.1040    -0.7960     0.0640 c3         1 5CR      -0.036300
      6 C           -2.3670    -1.5930     0.5140 c          1 5CR       0.716000
      7 O           -2.8130    -1.3950     1.6370 o          1 5CR      -0.724000
      8 OXT         -2.9120    -2.3200    -0.3040 o          1 5CR      -0.724000
      9 CB           0.1790    -1.3560     0.7290 c3         1 5CR      -0.043100
     10 CG           1.4510    -0.6330     0.2990 ca         1 5CR      -0.044300
     11 CD1          2.0210     0.3590     1.1220 ca         1 5CR      -0.104500
     12 CE1          3.1940     1.0240     0.7230 ca         1 5CR      -0.116000
     13 CZ           3.8050     0.7000    -0.5000 ca         1 5CR      -0.132000
     14 CE2          3.2420    -0.2890    -1.3240 ca         1 5CR      -0.116000
     15 CD2          2.0690    -0.9530    -0.9260 ca         1 5CR      -0.104500
     16 HAA1        -0.5880     3.1660     0.9980 hc         1 5CR       0.043033
     17 HAA2        -0.8520     3.8680    -0.6520 hc         1 5CR       0.043033
     18 HAA3        -2.1760     3.1760     0.3760 hc         1 5CR       0.043033
     19 H           -1.6700     0.9260     1.2290 hn         1 5CR       0.323500
     20 HA          -1.0150    -0.9380    -1.0200 h1         1 5CR       0.068700
     21 HB1C         0.0680    -1.3040     1.8190 hc         1 5CR       0.053700
     22 HB2C         0.2620    -2.4230     0.4870 hc         1 5CR       0.053700
     23 HD1          1.5530     0.6170     2.0690 ha         1 5CR       0.109000
     24 HD2          1.6370    -1.7150    -1.5710 ha         1 5CR       0.109000
     25 HE1          3.6280     1.7900     1.3620 ha         1 5CR       0.093500
     26 HZ           4.7120     1.2140    -0.8080 ha         1 5CR       0.091000
     27 HE2          3.7140    -0.5400    -2.2710 ha         1 5CR       0.093500
@<TRIPOS>BOND
     1     1     2 1   
     2     1    16 1   
     3     1    17 1   
     4     1    18 1   
     5     2     3 2   
     6     2     4 1   
     7     4     5 1   
     8     4    19 1   
     9     5     6 1   
    10     5     9 1   
    11     5    20 1   
    12     6     7 1   
    13     6     8 1   
    14     9    10 1   
    15     9    21 1   
    16     9    22 1   
    17    10    11 ar  
    18    10    15 ar  
    19    11    12 ar  
    20    11    23 1   
    21    12    13 ar  
    22    12    25 1   
    23    13    14 ar  
    24    13    26 1   
    25    14    15 ar  
    26    14    27 1   
    27    15    24 1   
@<TRIPOS>SUBSTRUCTURE
     1 5CR         1 TEMP              0 ****  ****    0 ROOT
