@<TRIPOS>MOLECULE
5CT
   38    37     1     0     0
SMALL
abcg2


@<TRIPOS>ATOM
      1 CG           2.0290     0.4710     0.3930 c3         1 5CT      -0.077400
      2 CD           0.7710    -0.1360    -0.2140 c3         1 5CT      -0.078400
      3 CE          -0.5050     0.4650     0.3530 c3         1 5CT       0.156800
      4 NZ          -1.6850    -0.1350    -0.2360 n7         1 5CT      -0.852400
      5 C1          -2.9170     0.4000     0.3020 c3         1 5CT       0.130800
      6 C2          -4.1510    -0.2490    -0.3150 c3         1 5CT       0.168300
      7 C3          -5.4230     0.3900     0.2320 c3         1 5CT      -0.114400
      8 C4          -6.6950    -0.1490    -0.4030 c3         1 5CT       0.153800
      9 N1          -7.8660     0.5010     0.1680 n8         1 5CT      -1.001200
     10 O1          -4.1530    -1.6530    -0.1590 oh         1 5CT      -0.644000
     11 CB           3.3070    -0.1640    -0.1430 c3         1 5CT      -0.100400
     12 CA           4.5970     0.4080     0.4680 c3         1 5CT       0.020500
     13 C            5.7880    -0.4440    -0.0210 c          1 5CT       0.725000
     14 O            6.4760     0.0180    -0.9530 o          1 5CT      -0.732000
     15 N            4.8280     1.8170     0.1930 n8         1 5CT      -0.987200
     16 OXT          5.9360    -1.5530     0.5320 o          1 5CT      -0.732000
     17 H1           2.0300     1.5500     0.2020 hc         1 5CT       0.025700
     18 H2           2.0020     0.3550     1.4820 hc         1 5CT       0.025700
     19 H3           0.7880     0.0050    -1.3000 hc         1 5CT       0.043700
     20 H4           0.7620    -1.2170    -0.0440 hc         1 5CT       0.043700
     21 H5          -0.5390     0.2890     1.4340 h1         1 5CT       0.022700
     22 H6          -0.4780     1.5610     0.2280 h1         1 5CT       0.022700
     23 H7          -1.6670     0.0240    -1.2380 hn         1 5CT       0.407000
     24 H9          -2.9240     0.2270     1.3850 h1         1 5CT       0.027200
     25 H10         -3.0030     1.4910     0.1730 h1         1 5CT       0.027200
     26 H11         -4.1200    -0.0830    -1.3990 h1         1 5CT       0.063700
     27 H12         -5.4710     0.2470     1.3180 hc         1 5CT       0.047200
     28 H13         -5.3680     1.4710     0.0670 hc         1 5CT       0.047200
     29 H14         -6.6200    -0.0380    -1.4950 h1         1 5CT       0.034200
     30 H15         -6.7740    -1.2200    -0.2080 h1         1 5CT       0.034200
     31 H16         -7.8720     1.4780    -0.0990 hn         1 5CT       0.388500
     32 H17         -8.7040     0.1030    -0.2360 hn         1 5CT       0.388500
     33 H19         -4.1380    -1.8500     0.7840 ho         1 5CT       0.440000
     34 H20          3.2710    -1.2400     0.0520 hc         1 5CT       0.043700
     35 H21          3.3460    -0.0480    -1.2330 hc         1 5CT       0.043700
     36 H22          4.5220     0.2850     1.5550 h1         1 5CT       0.042700
     37 H23          5.0510     1.9200    -0.7900 hn         1 5CT       0.373000
     38 H24          3.9850     2.3520     0.3580 hn         1 5CT       0.373000
@<TRIPOS>BOND
     1     1     2 1   
     2     1    11 1   
     3     1    17 1   
     4     1    18 1   
     5     2     3 1   
     6     2    19 1   
     7     2    20 1   
     8     3     4 1   
     9     3    21 1   
    10     3    22 1   
    11     4     5 1   
    12     4    23 1   
    13     5     6 1   
    14     5    24 1   
    15     5    25 1   
    16     6     7 1   
    17     6    10 1   
    18     6    26 1   
    19     7     8 1   
    20     7    27 1   
    21     7    28 1   
    22     8     9 1   
    23     8    29 1   
    24     8    30 1   
    25     9    31 1   
    26     9    32 1   
    27    10    33 1   
    28    11    12 1   
    29    11    34 1   
    30    11    35 1   
    31    12    13 1   
    32    12    15 1   
    33    12    36 1   
    34    13    14 1   
    35    13    16 1   
    36    15    37 1   
    37    15    38 1   
@<TRIPOS>SUBSTRUCTURE
     1 5CT         1 TEMP              0 ****  ****    0 ROOT
