@<TRIPOS>MOLECULE
5CT
   38    37     1     0     0
SMALL
No Charge or Current Charge


@<TRIPOS>ATOM
      1 CG           2.0480     0.4970     0.4210 c3         1 5CT      -0.077400
      2 CD           0.7350    -0.0120    -0.2140 c3         1 5CT      -0.078400
      3 CE          -0.5140     0.7080     0.3320 c3         1 5CT       0.156800
      4 NZ          -1.7280     0.1740    -0.3070 n7         1 5CT      -0.852400
      5 C1          -3.0000     0.7900     0.1530 c3         1 5CT       0.130800
      6 C2          -4.2180     0.0230    -0.4330 c3         1 5CT       0.168300
      7 C3          -5.5410     0.3220     0.3090 c3         1 5CT      -0.114400
      8 C4          -6.7690    -0.3610    -0.3260 c3         1 5CT       0.153800
      9 N1          -8.0110     0.0000     0.3840 n8         1 5CT      -1.001200
     10 O1          -3.9020    -1.3680    -0.3580 oh         1 5CT      -0.644000
     11 CB           3.3050    -0.2280    -0.1250 c3         1 5CT      -0.100400
     12 CA           4.6400     0.2030     0.5390 c3         1 5CT       0.020500
     13 C            5.8030    -0.8180     0.1840 c          1 5CT       0.725000
     14 O            6.2100    -0.8660    -0.9710 o          1 5CT      -0.732000
     15 N            4.9140     1.6580     0.2550 n8         1 5CT      -0.987200
     16 OXT          6.3000    -1.4730     1.0930 o          1 5CT      -0.732000
     17 H1           2.1330     1.5750     0.2380 hc         1 5CT       0.025700
     18 H2           1.9970     0.3580     1.5080 hc         1 5CT       0.025700
     19 H3           0.7840     0.1240    -1.3010 hc         1 5CT       0.043700
     20 H4           0.6380    -1.0890    -0.0270 hc         1 5CT       0.043700
     21 H5          -0.5630     0.5650     1.4200 h1         1 5CT       0.022700
     22 H6          -0.4230     1.7850     0.1370 h1         1 5CT       0.022700
     23 H7          -1.6420     0.3320    -1.3200 hn         1 5CT       0.407000
     24 H9          -3.0560     0.7500     1.2490 h1         1 5CT       0.027200
     25 H10         -3.0550     1.8460    -0.1440 h1         1 5CT       0.027200
     26 H11         -4.3290     0.3220    -1.4850 h1         1 5CT       0.063700
     27 H12         -5.4500     0.0070     1.3570 hc         1 5CT       0.047200
     28 H13         -5.7000     1.4070     0.3150 hc         1 5CT       0.047200
     29 H14         -6.8610    -0.0540    -1.3780 h1         1 5CT       0.034200
     30 H15         -6.6490    -1.4530    -0.2930 h1         1 5CT       0.034200
     31 H16         -8.1720     1.0100     0.2810 hn         1 5CT       0.388500
     32 H17         -8.8100    -0.4220    -0.1050 hn         1 5CT       0.388500
     33 H19         -2.9160    -1.3440    -0.2730 ho         1 5CT       0.440000
     34 H20          3.1750    -1.3060     0.0340 hc         1 5CT       0.043700
     35 H21          3.3700    -0.0820    -1.2110 hc         1 5CT       0.043700
     36 H22          4.4920     0.1210     1.6250 h1         1 5CT       0.042700
     37 H23          5.1350     1.7600    -0.7430 hn         1 5CT       0.373000
     38 H24          4.0440     2.1880     0.3720 hn         1 5CT       0.373000
@<TRIPOS>BOND
     1     1     2 1   
     2     1    11 1   
     3     1    17 1   
     4     1    18 1   
     5     2     3 1   
     6     2    19 1   
     7     2    20 1   
     8     3     4 1   
     9     3    21 1   
    10     3    22 1   
    11     4     5 1   
    12     4    23 1   
    13     5     6 1   
    14     5    24 1   
    15     5    25 1   
    16     6     7 1   
    17     6    10 1   
    18     6    26 1   
    19     7     8 1   
    20     7    27 1   
    21     7    28 1   
    22     8     9 1   
    23     8    29 1   
    24     8    30 1   
    25     9    31 1   
    26     9    32 1   
    27    10    33 1   
    28    11    12 1   
    29    11    34 1   
    30    11    35 1   
    31    12    13 1   
    32    12    15 1   
    33    12    36 1   
    34    13    14 1   
    35    13    16 1   
    36    15    37 1   
    37    15    38 1   
@<TRIPOS>SUBSTRUCTURE
     1 5CT         1 TEMP              0 ****  ****    0 ROOT
