@<TRIPOS>MOLECULE
5CU
   14    14     1     0     0
SMALL
No Charge or Current Charge


@<TRIPOS>ATOM
      1 O53          2.6070    -1.4030     0.0160 o          1 5CU      -0.707000
      2 C51          2.0870    -0.2970     0.0090 c          1 5CU       0.733200
      3 O52          2.7570     0.7220     0.0230 o          1 5CU      -0.707000
      4 C5           0.6050    -0.2280    -0.0160 cc         1 5CU      -0.300400
      5 C4          -0.1050     1.0750    -0.0250 c          1 5CU       0.590200
      6 O4           0.4060     2.1830    -0.0150 o          1 5CU      -0.511000
      7 N3          -1.4670     0.9710    -0.0490 ns         1 5CU      -0.487500
      8 C2          -2.2250    -0.1500    -0.0640 c          1 5CU       0.608000
      9 O2          -3.4400    -0.1290    -0.0840 o          1 5CU      -0.622000
     10 N1          -1.5100    -1.3080    -0.0540 ns         1 5CU      -0.523600
     11 C6          -0.1290    -1.4040    -0.0300 cd         1 5CU      -0.047400
     12 H3          -1.9740     1.8410    -0.0550 hn         1 5CU       0.313500
     13 H4           0.2840    -2.4130    -0.0250 h4         1 5CU       0.224000
     14 H2          -2.0900    -2.1430    -0.0650 hn         1 5CU       0.437000
@<TRIPOS>BOND
     1     1     2 1   
     2     2     3 1   
     3     2     4 1   
     4     4     5 1   
     5     4    11 2   
     6     5     6 2   
     7     5     7 1   
     8     7     8 1   
     9     7    12 1   
    10     8     9 2   
    11     8    10 1   
    12    10    11 1   
    13    10    14 1   
    14    11    13 1   
@<TRIPOS>SUBSTRUCTURE
     1 5CU         1 TEMP              0 ****  ****    0 ROOT
