@<TRIPOS>MOLECULE
5CU
   14    14     1     0     0
SMALL
abcg2


@<TRIPOS>ATOM
      1 O53          2.5470    -1.5120     0.0470 o          1 5CU      -0.707000
      2 C51          2.1200    -0.3400     0.0030 c          1 5CU       0.733200
      3 O52          2.7960     0.6990    -0.0360 o          1 5CU      -0.707000
      4 C5           0.6050    -0.1950    -0.0100 cc         1 5CU      -0.300400
      5 C4          -0.0930     1.0810    -0.0110 c          1 5CU       0.590200
      6 O4           0.3900     2.1960     0.0180 o          1 5CU      -0.511000
      7 N3          -1.4860     0.9700    -0.0490 ns         1 5CU      -0.487500
      8 C2          -2.2500    -0.1630    -0.0700 c          1 5CU       0.608000
      9 O2          -3.4640    -0.1540    -0.1000 o          1 5CU      -0.622000
     10 N1          -1.5070    -1.3120    -0.0540 ns         1 5CU      -0.523600
     11 C6          -0.1520    -1.3140    -0.0270 cd         1 5CU      -0.047400
     12 H3          -1.9990     1.8420    -0.0550 hn         1 5CU       0.313500
     13 H4           0.3060    -2.2920    -0.0220 h4         1 5CU       0.224000
     14 H2          -2.0070    -2.1890    -0.0680 hn         1 5CU       0.437000
@<TRIPOS>BOND
     1     1     2 1   
     2     2     3 1   
     3     2     4 1   
     4     4     5 1   
     5     4    11 2   
     6     5     6 2   
     7     5     7 1   
     8     7     8 1   
     9     7    12 1   
    10     8     9 2   
    11     8    10 1   
    12    10    11 1   
    13    10    14 1   
    14    11    13 1   
@<TRIPOS>SUBSTRUCTURE
     1 5CU         1 TEMP              0 ****  ****    0 ROOT
