@<TRIPOS>MOLECULE
5CV
   74    78     1     0     0
SMALL
No Charge or Current Charge


@<TRIPOS>ATOM
      1 C4           2.6520     2.8190    -0.4610 cc         1 5CV      -0.037400
      2 C5           2.7030     4.1220    -0.9060 cd         1 5CV      -0.064400
      3 C8          -1.0470     2.1690    -0.7300 cc         1 5CV      -0.011100
      4 C10         -2.3500     2.5400    -1.0330 cd         1 5CV      -0.197200
      5 C15         -5.2010     0.0610    -0.5530 ca         1 5CV       0.114100
      6 C22        -10.3330    -2.6240     2.0040 c3         1 5CV       0.162100
      7 C26          5.6020     0.7610     0.6490 cc         1 5CV      -0.295600
      8 C23         -9.2250    -4.5440     0.9720 c3         1 5CV       0.162100
      9 C18         -7.2620    -1.2880    -0.3630 c3         1 5CV       0.174600
     10 C16         -4.6200     1.2980    -0.9050 ca         1 5CV      -0.104000
     11 C2           0.1930     2.8200    -0.7900 cd         1 5CV      -0.137200
     12 C12         -2.4420     0.4160    -0.3070 ca         1 5CV      -0.070200
     13 C11         -3.2350     1.4330    -0.7670 ca         1 5CV      -0.070800
     14 N21         -9.3210    -3.0660     1.0120 n3         1 5CV      -0.739600
     15 C20         -9.5020    -2.4730    -0.3460 c3         1 5CV       0.175800
     16 C19         -8.7870    -1.1100    -0.6300 c3         1 5CV      -0.041000
     17 C39         -9.3520     0.0470     0.2420 c3         1 5CV      -0.080600
     18 C40         -9.0280    -0.7590    -2.1270 c3         1 5CV      -0.080600
     19 O17         -6.5680    -0.0670    -0.6910 os         1 5CV      -0.356100
     20 C14         -4.3800    -1.0000    -0.0740 ca         1 5CV      -0.165000
     21 C13         -2.9830    -0.8250     0.0520 ca         1 5CV      -0.097000
     22 N9          -1.1190     0.8340    -0.2760 na         1 5CV      -0.227700
     23 C3           1.3650     2.1620    -0.4050 cc         1 5CV      -0.089000
     24 C1           0.2740     4.2400    -1.2720 c          1 5CV       0.560200
     25 N6           1.5410     4.7670    -1.2860 ns         1 5CV      -0.355100
     26 N24          3.8680     2.2340    -0.0940 ns         1 5CV      -0.419100
     27 C25          4.1660     0.9680     0.3860 c          1 5CV       0.660700
     28 O27          3.3360     0.0920     0.5800 o          1 5CV      -0.601100
     29 C28          6.1710    -0.3860     1.1220 cd         1 5CV      -0.090000
     30 C31          6.6470     1.6790     0.4690 cc         1 5CV       0.267900
     31 N30          7.8320     1.2040     0.7900 nd         1 5CV      -0.516800
     32 N29          7.5370    -0.0930     1.2000 na         1 5CV       0.136800
     33 C32          8.5980    -1.0100     1.6550 c3         1 5CV       0.134900
     34 C33          8.6280    -2.3460     0.9110 ca         1 5CV      -0.122300
     35 C34          8.5630    -2.3840    -0.4980 ca         1 5CV      -0.081500
     36 C35          8.5920    -3.6150    -1.1760 ca         1 5CV      -0.112500
     37 C36          8.6890    -4.8160    -0.4530 ca         1 5CV      -0.093000
     38 C37          8.7600    -4.7840     0.9490 ca         1 5CV      -0.112500
     39 C38          8.7310    -3.5540     1.6290 ca         1 5CV      -0.081500
     40 H1           3.6080     4.7190    -0.9930 h4         1 5CV       0.203000
     41 H2          -2.6660     3.5060    -1.4110 ha         1 5CV       0.223000
     42 H3         -10.1150    -3.0530     2.9910 h1         1 5CV       0.028367
     43 H4         -10.3540    -1.5360     2.1180 h1         1 5CV       0.028367
     44 H5         -11.3380    -2.9530     1.7060 h1         1 5CV       0.028367
     45 H6         -10.1590    -4.9870     0.6020 h1         1 5CV       0.028367
     46 H7          -8.4070    -4.8620     0.3120 h1         1 5CV       0.028367
     47 H8          -9.0240    -4.9480     1.9730 h1         1 5CV       0.028367
     48 H9          -7.1030    -1.5410     0.6930 h1         1 5CV       0.036700
     49 H10         -6.8820    -2.1180    -0.9740 h1         1 5CV       0.036700
     50 H11         -5.2320     2.1180    -1.2720 ha         1 5CV       0.129000
     51 H13         -9.1180    -3.1820    -1.0930 h1         1 5CV       0.033700
     52 H14        -10.5750    -2.3670    -0.5640 h1         1 5CV       0.033700
     53 H15         -8.9940     1.0200    -0.1140 hc         1 5CV       0.037700
     54 H16        -10.4480     0.0630     0.2120 hc         1 5CV       0.037700
     55 H17         -9.0310    -0.0500     1.2860 hc         1 5CV       0.037700
     56 H18         -8.6060    -1.5300    -2.7830 hc         1 5CV       0.037700
     57 H19        -10.1010    -0.6820    -2.3410 hc         1 5CV       0.037700
     58 H20         -8.5650     0.1990    -2.3950 hc         1 5CV       0.037700
     59 H21         -4.8060    -1.9600     0.2030 ha         1 5CV       0.113000
     60 H22         -2.3490    -1.6300     0.4170 ha         1 5CV       0.111000
     61 H23         -0.3400     0.2640     0.0270 hn         1 5CV       0.349000
     62 H24          1.3370     1.1420    -0.0540 ha         1 5CV       0.198000
     63 H25          1.5820     5.7260    -1.6140 hn         1 5CV       0.330500
     64 H26          4.6910     2.8130    -0.1860 hn         1 5CV       0.322500
     65 H27          5.7460    -1.3460     1.3960 h4         1 5CV       0.172000
     66 H28          6.5820     2.6970     0.1070 h4         1 5CV       0.035100
     67 H29          9.5690    -0.5140     1.5330 h1         1 5CV       0.071200
     68 H30          8.4520    -1.1860     2.7280 h1         1 5CV       0.071200
     69 H31          8.4910    -1.4610    -1.0700 ha         1 5CV       0.116000
     70 H32          8.5400    -3.6380    -2.2630 ha         1 5CV       0.117000
     71 H33          8.7120    -5.7680    -0.9790 ha         1 5CV       0.116000
     72 H34          8.8380    -5.7130     1.5100 ha         1 5CV       0.117000
     73 H35          8.7870    -3.5430     2.7160 ha         1 5CV       0.116000
     74 O7          -0.6710     4.9230    -1.6370 o          1 5CV      -0.547000
@<TRIPOS>BOND
     1     1     2 2   
     2     1    23 1   
     3     1    26 1   
     4     2    25 1   
     5     2    40 1   
     6     3     4 2   
     7     3    11 1   
     8     3    22 1   
     9     4    13 1   
    10     4    41 1   
    11     5    10 ar  
    12     5    19 1   
    13     5    20 ar  
    14     6    14 1   
    15     6    42 1   
    16     6    43 1   
    17     6    44 1   
    18     7    27 1   
    19     7    29 2   
    20     7    30 1   
    21     8    14 1   
    22     8    45 1   
    23     8    46 1   
    24     8    47 1   
    25     9    16 1   
    26     9    19 1   
    27     9    48 1   
    28     9    49 1   
    29    10    13 ar  
    30    10    50 1   
    31    11    23 2   
    32    11    24 1   
    33    12    13 ar  
    34    12    21 ar  
    35    12    22 1   
    36    14    15 1   
    37    15    16 1   
    38    15    51 1   
    39    15    52 1   
    40    16    17 1   
    41    16    18 1   
    42    17    53 1   
    43    17    54 1   
    44    17    55 1   
    45    18    56 1   
    46    18    57 1   
    47    18    58 1   
    48    20    21 ar  
    49    20    59 1   
    50    21    60 1   
    51    22    61 1   
    52    23    62 1   
    53    24    25 1   
    54    24    74 2   
    55    25    63 1   
    56    26    27 1   
    57    26    64 1   
    58    27    28 2   
    59    29    32 1   
    60    29    65 1   
    61    30    31 2   
    62    30    66 1   
    63    31    32 1   
    64    32    33 1   
    65    33    34 1   
    66    33    67 1   
    67    33    68 1   
    68    34    35 ar  
    69    34    39 ar  
    70    35    36 ar  
    71    35    69 1   
    72    36    37 ar  
    73    36    70 1   
    74    37    38 ar  
    75    37    71 1   
    76    38    39 ar  
    77    38    72 1   
    78    39    73 1   
@<TRIPOS>SUBSTRUCTURE
     1 5CV         1 TEMP              0 ****  ****    0 ROOT
