@<TRIPOS>MOLECULE
5CV
   74    78     1     0     0
SMALL
bcc


@<TRIPOS>ATOM
      1 C4           2.5920     2.9870    -0.5240 cc         1 5CV      -0.037400
      2 C5           2.5680     4.3430    -0.6000 cd         1 5CV      -0.014400
      3 C8          -1.1100     2.2510    -0.5180 cc         1 5CV      -0.011100
      4 C10         -2.3700     2.6140    -0.9350 cd         1 5CV      -0.147200
      5 C15         -5.1490     0.0760    -0.5020 ca         1 5CV       0.114100
      6 C22        -10.3890    -2.8260     1.7560 c3         1 5CV       0.162100
      7 C26          5.4720     0.8390     0.4350 cc         1 5CV      -0.360900
      8 C23         -8.4630    -4.1650     1.2850 c3         1 5CV       0.162100
      9 C18         -7.1060    -1.2940    -0.3940 c3         1 5CV       0.151400
     10 C16         -4.5980     1.2870    -0.8890 ca         1 5CV      -0.122000
     11 C2           0.1540     2.9700    -0.5680 cd         1 5CV      -0.137200
     12 C12         -2.4420     0.4970    -0.1010 ca         1 5CV      -0.070200
     13 C11         -3.2330     1.5090    -0.6840 ca         1 5CV      -0.070800
     14 N21         -9.1260    -2.8990     1.0570 n3         1 5CV      -0.739600
     15 C20         -9.2280    -2.5510    -0.3530 c3         1 5CV       0.175800
     16 C19         -8.5920    -1.2000    -0.7230 c3         1 5CV      -0.041000
     17 C39         -9.2480    -0.0660     0.0650 c3         1 5CV      -0.080600
     18 C40         -8.7990    -0.9780    -2.2220 c3         1 5CV      -0.080600
     19 O17         -6.4760    -0.0720    -0.7240 os         1 5CV      -0.332900
     20 C14         -4.3450    -0.9210     0.0860 ca         1 5CV      -0.183000
     21 C13         -2.9900    -0.7170     0.2900 ca         1 5CV      -0.115000
     22 N9          -1.1610     0.9690    -0.0260 na         1 5CV      -0.177400
     23 C3           1.3530     2.3080    -0.5230 cc         1 5CV      -0.039000
     24 C1           0.1380     4.4200    -0.6800 c          1 5CV       0.702700
     25 N6           1.3900     4.9940    -0.6930 ns         1 5CV      -0.422100
     26 N24          3.8130     2.2940    -0.4850 ns         1 5CV      -0.486100
     27 C25          4.1310     1.4250     0.5100 c          1 5CV       0.727700
     28 O27          3.3510     1.1440     1.4070 o          1 5CV      -0.601100
     29 C28          6.0070    -0.0150     1.3820 cd         1 5CV      -0.057300
     30 C31          6.5050     0.9820    -0.5140 cc         1 5CV       0.333200
     31 N30          7.5650     0.2820    -0.1740 nd         1 5CV      -0.516800
     32 N29          7.2450    -0.3080     0.9790 na         1 5CV       0.115400
     33 C32          8.1900    -1.2090     1.6130 c3         1 5CV       0.105600
     34 C33          8.3300    -2.4960     0.8460 ca         1 5CV      -0.122300
     35 C34          9.3420    -2.6480    -0.0960 ca         1 5CV      -0.099500
     36 C35          9.4550    -3.8260    -0.8220 ca         1 5CV      -0.130500
     37 C36          8.5530    -4.8610    -0.6140 ca         1 5CV      -0.111000
     38 C37          7.5400    -4.7150     0.3250 ca         1 5CV      -0.130500
     39 C38          7.4300    -3.5380     1.0510 ca         1 5CV      -0.099500
     40 H1           3.4580     4.9560    -0.6070 h4         1 5CV       0.153000
     41 H2          -2.6460     3.5500    -1.3870 ha         1 5CV       0.173000
     42 H3         -10.2360    -2.9990     2.8230 h1         1 5CV       0.028367
     43 H4         -10.8310    -1.8360     1.6460 h1         1 5CV       0.028367
     44 H5         -11.1280    -3.5620     1.4030 h1         1 5CV       0.028367
     45 H6          -9.0060    -5.0290     0.8720 h1         1 5CV       0.028367
     46 H7          -7.4660    -4.1570     0.8410 h1         1 5CV       0.028367
     47 H8          -8.3430    -4.3330     2.3570 h1         1 5CV       0.028367
     48 H9          -6.9870    -1.5160     0.6730 h1         1 5CV       0.036700
     49 H10         -6.6540    -2.1200    -0.9620 h1         1 5CV       0.036700
     50 H11         -5.2240     2.0480    -1.3400 ha         1 5CV       0.147000
     51 H13         -8.7540    -3.3310    -0.9600 h1         1 5CV       0.033700
     52 H14        -10.2790    -2.5300    -0.6720 h1         1 5CV       0.033700
     53 H15         -8.8500     0.9060    -0.2260 hc         1 5CV       0.037700
     54 H16        -10.3240    -0.0460    -0.1170 hc         1 5CV       0.037700
     55 H17         -9.0920    -0.1860     1.1390 hc         1 5CV       0.037700
     56 H18         -8.3510    -1.7820    -2.8110 hc         1 5CV       0.037700
     57 H19         -9.8640    -0.9480    -2.4620 hc         1 5CV       0.037700
     58 H20         -8.3630    -0.0360    -2.5540 hc         1 5CV       0.037700
     59 H21         -4.7720    -1.8660     0.3930 ha         1 5CV       0.131000
     60 H22         -2.3870    -1.4940     0.7420 ha         1 5CV       0.129000
     61 H23         -0.4130     0.5030     0.4600 hn         1 5CV       0.298700
     62 H24          1.3730     1.2260    -0.5130 ha         1 5CV       0.148000
     63 H25          1.4130     6.0030    -0.7650 hn         1 5CV       0.330500
     64 H26          4.5190     2.5590    -1.1530 hn         1 5CV       0.322500
     65 H27          5.5910    -0.4080     2.2950 h4         1 5CV       0.190000
     66 H28          6.5200     1.5630    -1.4250 h4         1 5CV       0.035100
     67 H29          9.1460    -0.6930     1.6930 h1         1 5CV       0.071200
     68 H30          7.8290    -1.3920     2.6250 h1         1 5CV       0.071200
     69 H31         10.0500    -1.8450    -0.2610 ha         1 5CV       0.134000
     70 H32         10.2480    -3.9350    -1.5500 ha         1 5CV       0.135000
     71 H33          8.6420    -5.7810    -1.1780 ha         1 5CV       0.134000
     72 H34          6.8390    -5.5220     0.4970 ha         1 5CV       0.135000
     73 H35          6.6430    -3.4330     1.7890 ha         1 5CV       0.134000
     74 O7          -0.8590     5.1270    -0.7650 o          1 5CV      -0.622500
@<TRIPOS>BOND
     1     1     2 2   
     2     1    23 1   
     3     1    26 1   
     4     2    25 1   
     5     2    40 1   
     6     3     4 2   
     7     3    11 1   
     8     3    22 1   
     9     4    13 1   
    10     4    41 1   
    11     5    10 ar  
    12     5    19 1   
    13     5    20 ar  
    14     6    14 1   
    15     6    42 1   
    16     6    43 1   
    17     6    44 1   
    18     7    27 1   
    19     7    29 2   
    20     7    30 1   
    21     8    14 1   
    22     8    45 1   
    23     8    46 1   
    24     8    47 1   
    25     9    16 1   
    26     9    19 1   
    27     9    48 1   
    28     9    49 1   
    29    10    13 ar  
    30    10    50 1   
    31    11    23 2   
    32    11    24 1   
    33    12    13 ar  
    34    12    21 ar  
    35    12    22 1   
    36    14    15 1   
    37    15    16 1   
    38    15    51 1   
    39    15    52 1   
    40    16    17 1   
    41    16    18 1   
    42    17    53 1   
    43    17    54 1   
    44    17    55 1   
    45    18    56 1   
    46    18    57 1   
    47    18    58 1   
    48    20    21 ar  
    49    20    59 1   
    50    21    60 1   
    51    22    61 1   
    52    23    62 1   
    53    24    25 1   
    54    24    74 2   
    55    25    63 1   
    56    26    27 1   
    57    26    64 1   
    58    27    28 2   
    59    29    32 1   
    60    29    65 1   
    61    30    31 2   
    62    30    66 1   
    63    31    32 1   
    64    32    33 1   
    65    33    34 1   
    66    33    67 1   
    67    33    68 1   
    68    34    35 ar  
    69    34    39 ar  
    70    35    36 ar  
    71    35    69 1   
    72    36    37 ar  
    73    36    70 1   
    74    37    38 ar  
    75    37    71 1   
    76    38    39 ar  
    77    38    72 1   
    78    39    73 1   
@<TRIPOS>SUBSTRUCTURE
     1 5CV         1 TEMP              0 ****  ****    0 ROOT
