@<TRIPOS>MOLECULE
5CX
   36    37     1     0     0
SMALL
No Charge or Current Charge


@<TRIPOS>ATOM
      1 S1          -4.0320    -0.1550     0.0470 sy         1 5CX       1.143600
      2 N1          -4.2220     1.0930    -0.9910 n8         1 5CX      -0.998100
      3 O2          -4.5000     0.3770     1.3250 o          1 5CX      -0.530000
      4 O3          -4.6490    -1.3050    -0.6140 o          1 5CX      -0.530000
      5 C4          -2.2450    -0.3200     0.0680 ca         1 5CX      -0.322500
      6 C5          -1.6000    -1.1260    -0.8920 ca         1 5CX      -0.017500
      7 C6          -0.2000    -1.2540    -0.8750 ca         1 5CX      -0.122500
      8 C7           0.5830    -0.5790     0.0880 cp         1 5CX       0.026000
      9 C8          -0.0800     0.2150     1.0520 ca         1 5CX      -0.122500
     10 C9          -1.4780     0.3510     1.0450 ca         1 5CX      -0.017500
     11 C10          2.0680    -0.7380     0.1050 cp         1 5CX      -0.056000
     12 C11          2.6020    -2.0310     0.3240 ca         1 5CX      -0.093000
     13 C12          3.9860    -2.2500     0.3730 ca         1 5CX      -0.112000
     14 C13          4.8660    -1.1740     0.2010 ca         1 5CX      -0.100000
     15 C14          4.3610     0.1160    -0.0290 ca         1 5CX      -0.110000
     16 C15          2.9690     0.3550    -0.0890 ca         1 5CX      -0.050300
     17 C16          2.4840     1.7840    -0.3900 c3         1 5CX      -0.022400
     18 C17          2.8270     2.7520     0.7640 c3         1 5CX      -0.085100
     19 C18          3.0200     2.2980    -1.7460 c3         1 5CX      -0.085100
     20 H1          -4.7620     1.7370    -0.4180 hn         1 5CX       0.475500
     21 H2          -3.2900     1.4980    -1.0020 hn         1 5CX       0.475500
     22 H3          -2.1750    -1.6540    -1.6520 ha         1 5CX       0.136000
     23 H4           0.2870    -1.8780    -1.6200 ha         1 5CX       0.124500
     24 H5           0.5010     0.7270     1.8150 ha         1 5CX       0.124500
     25 H6          -1.9570     0.9720     1.8010 ha         1 5CX       0.136000
     26 H7           1.9270    -2.8710     0.4690 ha         1 5CX       0.118000
     27 H8           4.3750    -3.2510     0.5480 ha         1 5CX       0.117000
     28 H9           5.9410    -1.3370     0.2420 ha         1 5CX       0.115000
     29 H10          5.0630     0.9340    -0.1660 ha         1 5CX       0.114000
     30 H11          1.3940     1.7960    -0.4900 hc         1 5CX       0.053700
     31 H12          3.9120     2.8580     0.8830 hc         1 5CX       0.035533
     32 H13          2.4050     3.7460     0.5730 hc         1 5CX       0.035533
     33 H14          2.4130     2.3840     1.7110 hc         1 5CX       0.035533
     34 H15          2.7610     1.5990    -2.5500 hc         1 5CX       0.035533
     35 H16          2.5790     3.2720    -1.9900 hc         1 5CX       0.035533
     36 H17          4.1100     2.4160    -1.7300 hc         1 5CX       0.035533
@<TRIPOS>BOND
     1     1     2 1   
     2     1     3 2   
     3     1     4 2   
     4     1     5 1   
     5     2    20 1   
     6     2    21 1   
     7     5     6 ar  
     8     5    10 ar  
     9     6     7 ar  
    10     6    22 1   
    11     7     8 ar  
    12     7    23 1   
    13     8     9 ar  
    14     8    11 1   
    15     9    10 ar  
    16     9    24 1   
    17    10    25 1   
    18    11    12 ar  
    19    11    16 ar  
    20    12    13 ar  
    21    12    26 1   
    22    13    14 ar  
    23    13    27 1   
    24    14    15 ar  
    25    14    28 1   
    26    15    16 ar  
    27    15    29 1   
    28    16    17 1   
    29    17    18 1   
    30    17    19 1   
    31    17    30 1   
    32    18    31 1   
    33    18    32 1   
    34    18    33 1   
    35    19    34 1   
    36    19    35 1   
    37    19    36 1   
@<TRIPOS>SUBSTRUCTURE
     1 5CX         1 TEMP              0 ****  ****    0 ROOT
