@<TRIPOS>MOLECULE
5CX
   36    37     1     0     0
SMALL
bcc


@<TRIPOS>ATOM
      1 S1          -3.9510    -0.1530     0.1070 sy         1 5CX       1.285200
      2 N1          -4.3140     1.1230    -0.8610 n8         1 5CX      -0.887700
      3 O2          -4.3670     0.2200     1.4480 o          1 5CX      -0.600800
      4 O3          -4.5200    -1.3280    -0.5320 o          1 5CX      -0.600800
      5 C4          -2.1870    -0.3300     0.1130 ca         1 5CX      -0.322500
      6 C5          -1.5750    -1.1450    -0.8300 ca         1 5CX      -0.035500
      7 C6          -0.1940    -1.2490    -0.8380 ca         1 5CX      -0.140500
      8 C7           0.5840    -0.5470     0.0810 cp         1 5CX       0.026000
      9 C8          -0.0560     0.2570     1.0260 ca         1 5CX      -0.140500
     10 C9          -1.4350     0.3700     1.0480 ca         1 5CX      -0.035500
     11 C10          2.0570    -0.7040     0.0870 cp         1 5CX      -0.056000
     12 C11          2.5690    -1.9910     0.2750 ca         1 5CX      -0.111000
     13 C12          3.9330    -2.2210     0.3280 ca         1 5CX      -0.130000
     14 C13          4.8070    -1.1520     0.1890 ca         1 5CX      -0.118000
     15 C14          4.3060     0.1240    -0.0150 ca         1 5CX      -0.128000
     16 C15          2.9350     0.3770    -0.0770 ca         1 5CX      -0.050300
     17 C16          2.4630     1.7900    -0.3520 c3         1 5CX      -0.022400
     18 C17          2.8130     2.7290     0.8030 c3         1 5CX      -0.085100
     19 C18          3.0220     2.3170    -1.6750 c3         1 5CX      -0.085100
     20 H1          -3.9640     2.0100    -0.5170 hn         1 5CX       0.420300
     21 H2          -4.0660     0.9840    -1.8340 hn         1 5CX       0.420300
     22 H3          -2.1600    -1.6940    -1.5560 ha         1 5CX       0.154000
     23 H4           0.2860    -1.8810    -1.5740 ha         1 5CX       0.142500
     24 H5           0.5300     0.7870     1.7650 ha         1 5CX       0.142500
     25 H6          -1.9100     0.9890     1.7970 ha         1 5CX       0.154000
     26 H7           1.8810    -2.8180     0.3990 ha         1 5CX       0.136000
     27 H8           4.3080    -3.2240     0.4850 ha         1 5CX       0.135000
     28 H9           5.8770    -1.3100     0.2340 ha         1 5CX       0.133000
     29 H10          5.0040     0.9440    -0.1330 ha         1 5CX       0.132000
     30 H11          1.3770     1.7840    -0.4520 hc         1 5CX       0.053700
     31 H12          3.8930     2.7980     0.9480 hc         1 5CX       0.035533
     32 H13          2.4400     3.7350     0.6050 hc         1 5CX       0.035533
     33 H14          2.3760     2.3900     1.7440 hc         1 5CX       0.035533
     34 H15          2.7720     1.6520    -2.5030 hc         1 5CX       0.035533
     35 H16          2.6020     3.2990    -1.8960 hc         1 5CX       0.035533
     36 H17          4.1080     2.4230    -1.6480 hc         1 5CX       0.035533
@<TRIPOS>BOND
     1     1     2 1   
     2     1     3 2   
     3     1     4 2   
     4     1     5 1   
     5     2    20 1   
     6     2    21 1   
     7     5     6 ar  
     8     5    10 ar  
     9     6     7 ar  
    10     6    22 1   
    11     7     8 ar  
    12     7    23 1   
    13     8     9 ar  
    14     8    11 1   
    15     9    10 ar  
    16     9    24 1   
    17    10    25 1   
    18    11    12 ar  
    19    11    16 ar  
    20    12    13 ar  
    21    12    26 1   
    22    13    14 ar  
    23    13    27 1   
    24    14    15 ar  
    25    14    28 1   
    26    15    16 ar  
    27    15    29 1   
    28    16    17 1   
    29    17    18 1   
    30    17    19 1   
    31    17    30 1   
    32    18    31 1   
    33    18    32 1   
    34    18    33 1   
    35    19    34 1   
    36    19    35 1   
    37    19    36 1   
@<TRIPOS>SUBSTRUCTURE
     1 5CX         1 TEMP              0 ****  ****    0 ROOT
