@<TRIPOS>MOLECULE
5CY
   74    77     1     0     0
SMALL
bcc


@<TRIPOS>ATOM
      1 N1          -4.8660     0.3740    -0.4450 nh         1 5CY      -0.130200
      2 O1          -5.2270     5.1060     0.5710 oh         1 5CY      -0.590800
      3 C10         -3.6940    -0.2240    -0.1830 ce         1 5CY       0.408100
      4 C11         -5.0280     1.7190    -0.9620 c3         1 5CY       0.028300
      5 C12         -5.0520     2.7760     0.1330 c3         1 5CY      -0.107400
      6 C13         -5.2110     4.1590    -0.4710 c3         1 5CY       0.146900
      7 C14         -5.9490    -0.4630    -0.1560 ca         1 5CY      -0.031700
      8 C15         -7.3020    -0.1950    -0.2630 ca         1 5CY      -0.122000
      9 C16         -8.1790    -1.2190     0.0820 ca         1 5CY      -0.093000
     10 C17         -7.7110    -2.4550     0.5120 ca         1 5CY      -0.121000
     11 C18         -6.3420    -2.6970     0.6140 ca         1 5CY      -0.075000
     12 C19         -5.4660    -1.6860     0.2790 ca         1 5CY      -0.126800
     13 O2           5.6620     4.7280     1.3120 oh         1 5CY      -0.590800
     14 C2           3.8840    -1.7550     0.0590 c5         1 5CY       0.007500
     15 N2           4.8230     0.3120    -0.4860 nh         1 5CY      -0.461800
     16 C20         -3.9600    -1.6490     0.2900 c5         1 5CY      -0.072000
     17 C21         -3.4340    -1.8830     1.7120 c3         1 5CY      -0.074350
     18 C22         -3.4050    -2.6900    -0.6950 c3         1 5CY      -0.074350
     19 C23          5.0270     1.7150    -0.7900 c3         1 5CY       0.205800
     20 C24          5.2250     2.5490     0.4700 c3         1 5CY      -0.107400
     21 C25          5.4570     4.0070     0.1190 c3         1 5CY       0.146900
     22 C26          5.8900    -0.5790    -0.3290 ca         1 5CY       0.095100
     23 C27          7.2450    -0.3350    -0.4590 ca         1 5CY      -0.122000
     24 C28          8.1040    -1.4110    -0.2540 ca         1 5CY      -0.093000
     25 C29          7.6160    -2.6730     0.0660 ca         1 5CY      -0.121000
     26 C3           3.2650    -2.6800    -0.9980 c3         1 5CY      -0.074350
     27 C30          6.2440    -2.8900     0.1910 ca         1 5CY      -0.075000
     28 C31          5.3860    -1.8290    -0.0090 ca         1 5CY      -0.126800
     29 C4           3.6420    -0.2830    -0.2620 c2         1 5CY       0.269300
     30 C5           2.4340     0.3950    -0.3300 ce         1 5CY      -0.333000
     31 C6           1.1820    -0.1840    -0.1640 ce         1 5CY       0.101500
     32 C7          -0.0200     0.4960    -0.2980 cf         1 5CY      -0.303000
     33 C8          -1.2310    -0.1670    -0.1480 cf         1 5CY       0.101500
     34 C9          -2.4760     0.4240    -0.3270 ce         1 5CY      -0.419600
     35 H1           3.8650    -1.4620     2.2210 hc         1 5CY       0.052450
     36 H2           2.3230    -2.0270     1.5740 hc         1 5CY       0.052450
     37 H3           3.6810    -3.1380     1.7030 hc         1 5CY       0.052450
     38 H4          -5.2960     5.9810     0.1790 ho         1 5CY       0.417500
     39 H5          -4.2280     1.9080    -1.6780 h1         1 5CY       0.071950
     40 H6          -5.9540     1.7400    -1.5370 h1         1 5CY       0.071950
     41 H7          -5.8770     2.5780     0.8220 hc         1 5CY       0.071200
     42 H8          -4.1260     2.7330     0.7130 hc         1 5CY       0.071200
     43 H9          -6.1370     4.1920    -1.0610 h1         1 5CY       0.019950
     44 H10         -4.3850     4.3440    -1.1720 h1         1 5CY       0.019950
     45 H11         -7.6800     0.7620    -0.5950 ha         1 5CY       0.151000
     46 H12         -9.2450    -1.0440     0.0110 ha         1 5CY       0.151500
     47 H13         -8.4150    -3.2340     0.7730 ha         1 5CY       0.152000
     48 H14         -5.9820    -3.6610     0.9510 ha         1 5CY       0.148000
     49 H15          5.8030     5.6500     1.0830 ho         1 5CY       0.417500
     50 H16         -3.8310    -1.1420     2.4060 hc         1 5CY       0.052450
     51 H17         -3.7420    -2.8700     2.0580 hc         1 5CY       0.052450
     52 H18         -2.3470    -1.8440     1.7570 hc         1 5CY       0.052450
     53 H19         -2.3170    -2.7090    -0.7020 hc         1 5CY       0.052450
     54 H20         -3.7490    -3.6820    -0.4010 hc         1 5CY       0.052450
     55 H21         -3.7490    -2.4980    -1.7110 hc         1 5CY       0.052450
     56 H22          5.8960     1.7900    -1.4440 h1         1 5CY       0.071950
     57 H23          4.1810     2.0740    -1.3740 h1         1 5CY       0.071950
     58 H24          4.3470     2.4570     1.1150 hc         1 5CY       0.071200
     59 H25          6.0810     2.1660     1.0300 hc         1 5CY       0.071200
     60 H26          4.5920     4.3880    -0.4380 h1         1 5CY       0.019950
     61 H27          6.3240     4.0840    -0.5510 h1         1 5CY       0.019950
     62 H28          7.6400     0.6400    -0.7090 ha         1 5CY       0.151000
     63 H29          9.1710    -1.2580    -0.3450 ha         1 5CY       0.151500
     64 H30          8.3060    -3.4910     0.2210 ha         1 5CY       0.152000
     65 H31          2.1780    -2.6610    -0.9740 hc         1 5CY       0.052450
     66 H32          3.5890    -2.4060    -2.0010 hc         1 5CY       0.052450
     67 H33          3.5790    -3.7070    -0.8090 hc         1 5CY       0.052450
     68 H34          5.8680    -3.8750     0.4410 ha         1 5CY       0.148000
     69 H36          2.4540     1.4570    -0.5480 ha         1 5CY       0.151500
     70 H37          1.1070    -1.2400     0.0700 ha         1 5CY       0.118000
     71 H38         -0.0140     1.5520    -0.5460 ha         1 5CY       0.149000
     72 H39         -1.1710    -1.2170     0.1130 ha         1 5CY       0.118000
     73 H40         -2.4840     1.4710    -0.6060 ha         1 5CY       0.151500
     74 C1           3.4040    -2.1090     1.4740 c3         1 5CY      -0.074350
@<TRIPOS>BOND
     1     1     3 2   
     2     1     4 1   
     3     1     7 1   
     4     2     6 1   
     5     2    38 1   
     6     3    16 1   
     7     3    34 1   
     8     4     5 1   
     9     4    39 1   
    10     4    40 1   
    11     5     6 1   
    12     5    41 1   
    13     5    42 1   
    14     6    43 1   
    15     6    44 1   
    16     7     8 ar  
    17     7    12 ar  
    18     8     9 ar  
    19     8    45 1   
    20     9    10 ar  
    21     9    46 1   
    22    10    11 ar  
    23    10    47 1   
    24    11    12 ar  
    25    11    48 1   
    26    12    16 1   
    27    13    21 1   
    28    13    49 1   
    29    14    26 1   
    30    14    28 1   
    31    14    29 1   
    32    14    74 1   
    33    15    19 1   
    34    15    22 1   
    35    15    29 1   
    36    16    17 1   
    37    16    18 1   
    38    17    50 1   
    39    17    51 1   
    40    17    52 1   
    41    18    53 1   
    42    18    54 1   
    43    18    55 1   
    44    19    20 1   
    45    19    56 1   
    46    19    57 1   
    47    20    21 1   
    48    20    58 1   
    49    20    59 1   
    50    21    60 1   
    51    21    61 1   
    52    22    23 ar  
    53    22    28 ar  
    54    23    24 ar  
    55    23    62 1   
    56    24    25 ar  
    57    24    63 1   
    58    25    27 ar  
    59    25    64 1   
    60    26    65 1   
    61    26    66 1   
    62    26    67 1   
    63    27    28 ar  
    64    27    68 1   
    65    29    30 2   
    66    30    31 1   
    67    30    69 1   
    68    31    32 2   
    69    31    70 1   
    70    32    33 1   
    71    32    71 1   
    72    33    34 2   
    73    33    72 1   
    74    34    73 1   
    75    35    74 1   
    76    36    74 1   
    77    37    74 1   
@<TRIPOS>SUBSTRUCTURE
     1 5CY         1 TEMP              0 ****  ****    0 ROOT
