@<TRIPOS>MOLECULE
5CY
   74    77     1     0     0
SMALL
No Charge or Current Charge


@<TRIPOS>ATOM
      1 N1          -4.9420     0.3990    -0.4850 nh         1 5CY      -0.159500
      2 O1          -4.9160     5.1800     0.7720 oh         1 5CY      -0.653000
      3 C10         -3.7930    -0.3580    -0.2610 ce         1 5CY       0.408100
      4 C11         -4.9810     1.7930    -0.9620 c3         1 5CY       0.057600
      5 C12         -4.9140     2.8290     0.1790 c3         1 5CY      -0.107400
      6 C13         -4.9600     4.2770    -0.3360 c3         1 5CY       0.170100
      7 C14         -6.0860    -0.3310    -0.1480 ca         1 5CY      -0.031700
      8 C15         -7.4350     0.0580    -0.1930 ca         1 5CY      -0.104000
      9 C16         -8.4150    -0.8730     0.2070 ca         1 5CY      -0.075000
     10 C17         -8.0380    -2.1630     0.6420 ca         1 5CY      -0.103000
     11 C18         -6.6780    -2.5340     0.6840 ca         1 5CY      -0.057000
     12 C19         -5.7100    -1.5990     0.2840 ca         1 5CY      -0.126800
     13 O2           4.9060     4.9190     1.2690 oh         1 5CY      -0.653000
     14 C2           4.1230    -1.8250     0.0100 c5         1 5CY       0.007500
     15 N2           5.0020     0.3280    -0.5630 nh         1 5CY      -0.600200
     16 C20         -4.1900    -1.7640     0.2530 c5         1 5CY      -0.072000
     17 C21         -3.6580    -2.0680     1.6800 c3         1 5CY      -0.074350
     18 C22         -3.7950    -2.9080    -0.7180 c3         1 5CY      -0.074350
     19 C23          5.1280     1.7710    -0.8590 c3         1 5CY       0.205800
     20 C24          4.9470     2.6600     0.3870 c3         1 5CY      -0.107400
     21 C25          5.0790     4.1590     0.0690 c3         1 5CY       0.170100
     22 C26          6.0970    -0.5020    -0.3360 ca         1 5CY       0.233500
     23 C27          7.4690    -0.2040    -0.3910 ca         1 5CY      -0.104000
     24 C28          8.3930    -1.2310    -0.1120 ca         1 5CY      -0.075000
     25 C29          7.9360    -2.5250     0.2190 ca         1 5CY      -0.103000
     26 C3           3.6380    -2.8590    -1.0440 c3         1 5CY      -0.074350
     27 C30          6.5550    -2.7990     0.2760 ca         1 5CY      -0.057000
     28 C31          5.6460    -1.7630    -0.0060 ca         1 5CY      -0.126800
     29 C4           3.7930    -0.3400    -0.3710 c2         1 5CY       0.269300
     30 C5           2.5400     0.1650    -0.4910 ce         1 5CY      -0.383000
     31 C6           1.2480    -0.5120    -0.3040 ce         1 5CY       0.051500
     32 C7           0.0540     0.1220    -0.4420 cf         1 5CY      -0.353000
     33 C8          -1.2460    -0.5050    -0.2680 cf         1 5CY       0.051500
     34 C9          -2.4180     0.1680    -0.4150 ce         1 5CY      -0.469600
     35 H1           3.9990    -1.5020     2.1770 hc         1 5CY       0.052450
     36 H2           2.5520    -2.2680     1.5180 hc         1 5CY       0.052450
     37 H3           4.0260    -3.2090     1.7200 hc         1 5CY       0.052450
     38 H4          -4.9520     6.0910     0.4010 ho         1 5CY       0.456500
     39 H5          -4.1570     1.9660    -1.6650 h1         1 5CY       0.071950
     40 H6          -5.9010     1.9530    -1.5380 h1         1 5CY       0.071950
     41 H7          -5.7530     2.6620     0.8650 hc         1 5CY       0.071200
     42 H8          -3.9920     2.6790     0.7530 hc         1 5CY       0.071200
     43 H9          -5.8820     4.4250    -0.9140 h1         1 5CY       0.019950
     44 H10         -4.1070     4.4530    -1.0060 h1         1 5CY       0.019950
     45 H11         -7.7280     1.0520    -0.5230 ha         1 5CY       0.133000
     46 H12         -9.4670    -0.5960     0.1810 ha         1 5CY       0.133500
     47 H13         -8.8010    -2.8740     0.9490 ha         1 5CY       0.134000
     48 H14         -6.3890    -3.5260     1.0230 ha         1 5CY       0.130000
     49 H15          4.9990     5.8670     1.0230 ho         1 5CY       0.456500
     50 H16         -3.9410    -1.2720     2.3800 hc         1 5CY       0.052450
     51 H17         -4.0710    -3.0070     2.0660 hc         1 5CY       0.052450
     52 H18         -2.5680    -2.1580     1.7080 hc         1 5CY       0.052450
     53 H19         -2.7110    -3.0350    -0.7960 hc         1 5CY       0.052450
     54 H20         -4.2110    -3.8680    -0.3900 hc         1 5CY       0.052450
     55 H21         -4.1760    -2.7130    -1.7270 hc         1 5CY       0.052450
     56 H22          6.1120     1.9840    -1.2950 h1         1 5CY       0.071950
     57 H23          4.3960     2.0570    -1.6270 h1         1 5CY       0.071950
     58 H24          3.9630     2.4690     0.8300 hc         1 5CY       0.071200
     59 H25          5.6980     2.3810     1.1360 hc         1 5CY       0.071200
     60 H26          4.3200     4.4410    -0.6730 h1         1 5CY       0.019950
     61 H27          6.0680     4.3540    -0.3650 h1         1 5CY       0.019950
     62 H28          7.8220     0.7910    -0.6410 ha         1 5CY       0.133000
     63 H29          9.4610    -1.0250    -0.1500 ha         1 5CY       0.133500
     64 H30          8.6540    -3.3140     0.4350 ha         1 5CY       0.134000
     65 H31          2.5490    -2.9350    -1.0980 hc         1 5CY       0.052450
     66 H32          3.9960    -2.5880    -2.0450 hc         1 5CY       0.052450
     67 H33          4.0200    -3.8620    -0.8200 hc         1 5CY       0.052450
     68 H34          6.2030    -3.7950     0.5360 ha         1 5CY       0.130000
     69 H36          2.4440     1.2130    -0.7650 ha         1 5CY       0.201500
     70 H37          1.2330    -1.5680    -0.0460 ha         1 5CY       0.168000
     71 H38          0.0580     1.1820    -0.7020 ha         1 5CY       0.199000
     72 H39         -1.2470    -1.5650    -0.0090 ha         1 5CY       0.168000
     73 H40         -2.3450     1.2210    -0.6740 ha         1 5CY       0.201500
     74 C1           3.6410    -2.2230     1.4320 c3         1 5CY      -0.074350
@<TRIPOS>BOND
     1     1     3 2   
     2     1     4 1   
     3     1     7 1   
     4     2     6 1   
     5     2    38 1   
     6     3    16 1   
     7     3    34 1   
     8     4     5 1   
     9     4    39 1   
    10     4    40 1   
    11     5     6 1   
    12     5    41 1   
    13     5    42 1   
    14     6    43 1   
    15     6    44 1   
    16     7     8 ar  
    17     7    12 ar  
    18     8     9 ar  
    19     8    45 1   
    20     9    10 ar  
    21     9    46 1   
    22    10    11 ar  
    23    10    47 1   
    24    11    12 ar  
    25    11    48 1   
    26    12    16 1   
    27    13    21 1   
    28    13    49 1   
    29    14    26 1   
    30    14    28 1   
    31    14    29 1   
    32    14    74 1   
    33    15    19 1   
    34    15    22 1   
    35    15    29 1   
    36    16    17 1   
    37    16    18 1   
    38    17    50 1   
    39    17    51 1   
    40    17    52 1   
    41    18    53 1   
    42    18    54 1   
    43    18    55 1   
    44    19    20 1   
    45    19    56 1   
    46    19    57 1   
    47    20    21 1   
    48    20    58 1   
    49    20    59 1   
    50    21    60 1   
    51    21    61 1   
    52    22    23 ar  
    53    22    28 ar  
    54    23    24 ar  
    55    23    62 1   
    56    24    25 ar  
    57    24    63 1   
    58    25    27 ar  
    59    25    64 1   
    60    26    65 1   
    61    26    66 1   
    62    26    67 1   
    63    27    28 ar  
    64    27    68 1   
    65    29    30 2   
    66    30    31 1   
    67    30    69 1   
    68    31    32 2   
    69    31    70 1   
    70    32    33 1   
    71    32    71 1   
    72    33    34 2   
    73    33    72 1   
    74    34    73 1   
    75    35    74 1   
    76    36    74 1   
    77    37    74 1   
@<TRIPOS>SUBSTRUCTURE
     1 5CY         1 TEMP              0 ****  ****    0 ROOT
