@<TRIPOS>MOLECULE
5CZ
   47    50     1     0     0
SMALL
bcc


@<TRIPOS>ATOM
      1 C2          -0.7000    -1.0930    -0.3800 ca         1 5CZ      -0.039800
      2 C3           0.0290    -0.2440    -1.2170 ca         1 5CZ      -0.106000
      3 C7          -0.0250    -2.1410     0.2490 ca         1 5CZ      -0.106000
      4 C8          -2.1320    -0.9170    -0.1690 cc         1 5CZ      -0.001300
      5 C9          -3.0640    -1.8300     0.2640 cd         1 5CZ      -0.171200
      6 C10         -4.3230    -1.1680     0.2840 ca         1 5CZ      -0.087800
      7 C11         -4.0940     0.1560    -0.1510 ca         1 5CZ      -0.048200
      8 C20          4.2950    -0.8220    -0.5840 ca         1 5CZ       0.146100
      9 C21          5.5690    -0.9550    -1.1300 ca         1 5CZ      -0.186500
     10 C22          6.5800    -0.1030    -0.7310 ca         1 5CZ      -0.064500
     11 C24          5.0690     1.0140     0.7490 ca         1 5CZ      -0.064500
     12 N29          8.4540     1.9380    -0.1770 n2         1 5CZ      -0.830100
     13 C30         -5.6270    -1.5480     0.6230 ca         1 5CZ      -0.081000
     14 C31         -6.6410    -0.6180     0.5330 ca         1 5CZ      -0.136000
     15 C32         -6.3960     0.7020     0.0990 ca         1 5CZ      -0.175900
     16 C33         -5.1120     1.0960    -0.2490 ca         1 5CZ      -0.126000
     17 C34         -7.5100     1.6840    -0.0130 ce         1 5CZ       0.662800
     18 C4           1.3860    -0.4300    -1.4170 ca         1 5CZ      -0.137500
     19 C5           2.0340    -1.4780    -0.7790 ca         1 5CZ       0.108100
     20 C6           1.3320    -2.3350     0.0550 ca         1 5CZ      -0.137500
     21 N12         -2.7630     0.2730    -0.4220 na         1 5CZ      -0.165400
     22 O19          3.3630    -1.7210    -1.0010 os         1 5CZ      -0.252200
     23 C23          6.3510     0.8930     0.2190 ca         1 5CZ      -0.174900
     24 C25          4.0420     0.1670     0.3590 ca         1 5CZ      -0.186500
     25 C26          7.4640     1.7950     0.6190 ce         1 5CZ       0.665800
     26 N27          7.2960     2.4400     1.8110 nv         1 5CZ      -0.967800
     27 N35         -7.5880     2.6020    -0.9010 n2         1 5CZ      -0.849100
     28 N38         -8.5130     1.5250     0.8970 nv         1 5CZ      -0.921800
     29 H1          -0.4590     0.5640    -1.7460 ha         1 5CZ       0.136000
     30 H2          -0.5590    -2.8080     0.9130 ha         1 5CZ       0.136000
     31 H3          -2.8730    -2.8630     0.5100 ha         1 5CZ       0.158000
     32 H4           5.7600    -1.7290    -1.8630 ha         1 5CZ       0.147500
     33 H5           7.5670    -0.2110    -1.1580 ha         1 5CZ       0.147500
     34 H6           4.8410     1.7890     1.4700 ha         1 5CZ       0.147500
     35 H7           9.1620     2.5460     0.2250 hn         1 5CZ       0.371400
     36 H8          -5.8420    -2.5580     0.9470 ha         1 5CZ       0.137000
     37 H9          -7.6510    -0.9160     0.7820 ha         1 5CZ       0.141000
     38 H10         -4.9010     2.1110    -0.5660 ha         1 5CZ       0.137000
     39 H11          1.9310     0.2320    -2.0790 ha         1 5CZ       0.151500
     40 H12          1.8450    -3.1500     0.5510 ha         1 5CZ       0.151500
     41 H13         -2.3070     1.1340    -0.6770 hn         1 5CZ       0.300700
     42 H14          3.0610     0.2900     0.7970 ha         1 5CZ       0.147500
     43 H15          6.7400     2.0000     2.5240 hn         1 5CZ       0.405300
     44 H16          8.0860     2.9480     2.1750 hn         1 5CZ       0.405300
     45 H17         -6.8280     2.5190    -1.5670 hn         1 5CZ       0.386400
     46 H18         -8.2850     1.1390     1.7980 hn         1 5CZ       0.413800
     47 H19         -9.2110     2.2510     0.9200 hn         1 5CZ       0.413800
@<TRIPOS>BOND
     1     1     2 ar  
     2     1     3 ar  
     3     1     4 1   
     4     2    18 ar  
     5     2    29 1   
     6     3    20 ar  
     7     3    30 1   
     8     4     5 2   
     9     4    21 1   
    10     5     6 1   
    11     5    31 1   
    12     6     7 ar  
    13     6    13 ar  
    14     7    16 ar  
    15     7    21 1   
    16     8     9 ar  
    17     8    22 1   
    18     8    24 ar  
    19     9    10 ar  
    20     9    32 1   
    21    10    23 ar  
    22    10    33 1   
    23    11    23 ar  
    24    11    24 ar  
    25    11    34 1   
    26    12    25 2   
    27    12    35 1   
    28    13    14 ar  
    29    13    36 1   
    30    14    15 ar  
    31    14    37 1   
    32    15    16 ar  
    33    15    17 1   
    34    16    38 1   
    35    17    27 2   
    36    17    28 1   
    37    18    19 ar  
    38    18    39 1   
    39    19    20 ar  
    40    19    22 1   
    41    20    40 1   
    42    21    41 1   
    43    23    25 1   
    44    24    42 1   
    45    25    26 1   
    46    26    43 1   
    47    26    44 1   
    48    27    45 1   
    49    28    46 1   
    50    28    47 1   
@<TRIPOS>SUBSTRUCTURE
     1 5CZ         1 TEMP              0 ****  ****    0 ROOT
