@<TRIPOS>MOLECULE
5CZ
   47    50     1     0     0
SMALL
No Charge or Current Charge


@<TRIPOS>ATOM
      1 C2          -0.7090    -1.1070    -0.2160 ca         1 5CZ      -0.039800
      2 C3           0.1630    -0.1370    -0.7580 ca         1 5CZ      -0.088000
      3 C7          -0.1680    -2.3400     0.2130 ca         1 5CZ      -0.088000
      4 C8          -2.1460    -0.8160    -0.1090 cc         1 5CZ      -0.001300
      5 C9          -3.1380    -1.7440     0.1790 cd         1 5CZ      -0.221200
      6 C10         -4.4230    -1.0930     0.1690 ca         1 5CZ      -0.087800
      7 C11         -4.1810     0.2170    -0.1340 ca         1 5CZ      -0.048200
      8 C20          4.3930    -0.9600    -0.3180 ca         1 5CZ       0.146100
      9 C21          5.5370    -0.9690    -1.1280 ca         1 5CZ      -0.168500
     10 C22          6.5600    -0.0280    -0.9210 ca         1 5CZ      -0.046500
     11 C24          5.3000     0.9300     0.9260 ca         1 5CZ      -0.046500
     12 N29          8.4030     2.2250    -0.5820 n2         1 5CZ      -0.830100
     13 C30         -5.7140    -1.5800     0.3920 ca         1 5CZ      -0.063000
     14 C31         -6.7830    -0.6620     0.3010 ca         1 5CZ      -0.118000
     15 C32         -6.5530     0.7150     0.0040 ca         1 5CZ      -0.175900
     16 C33         -5.2200     1.1520    -0.2330 ca         1 5CZ      -0.108000
     17 C34         -7.7000     1.6700    -0.1280 ce         1 5CZ       0.662800
     18 C4           1.5410    -0.3920    -0.8680 ca         1 5CZ      -0.119500
     19 C5           2.0680    -1.6200    -0.4270 ca         1 5CZ       0.108100
     20 C6           1.2100    -2.5940     0.1030 ca         1 5CZ      -0.119500
     21 N12         -2.8170     0.4050    -0.3090 na         1 5CZ      -0.215700
     22 O19          3.4120    -1.9010    -0.5370 os         1 5CZ      -0.252200
     23 C23          6.4650     0.9250     0.1210 ca         1 5CZ      -0.174900
     24 C25          4.2780    -0.0130     0.7140 ca         1 5CZ      -0.168500
     25 C26          7.5460     1.9440     0.3100 ce         1 5CZ       0.665800
     26 N27          7.6840     2.5040     1.5300 nv         1 5CZ      -1.078200
     27 N35         -7.6350     2.7560    -0.7810 n2         1 5CZ      -0.849100
     28 N38         -8.8040     1.4400     0.6040 nv         1 5CZ      -1.032200
     29 H1          -0.2240     0.8170    -1.1050 ha         1 5CZ       0.118000
     30 H2          -0.8050    -3.1080     0.6430 ha         1 5CZ       0.118000
     31 H3          -2.9830    -2.8020     0.3650 ha         1 5CZ       0.208000
     32 H4           5.6280    -1.7040    -1.9240 ha         1 5CZ       0.129500
     33 H5           7.4350    -0.0490    -1.5680 ha         1 5CZ       0.129500
     34 H6           5.1720     1.6690     1.7150 ha         1 5CZ       0.129500
     35 H7           8.8980     3.0740    -0.2880 hn         1 5CZ       0.371400
     36 H8          -5.8890    -2.6280     0.6200 ha         1 5CZ       0.119000
     37 H9          -7.7960    -1.0310     0.4510 ha         1 5CZ       0.123000
     38 H10         -4.9940     2.1890    -0.4710 ha         1 5CZ       0.119000
     39 H11          2.1940     0.3620    -1.3010 ha         1 5CZ       0.133500
     40 H12          1.6160    -3.5460     0.4360 ha         1 5CZ       0.133500
     41 H13         -2.3750     1.2860    -0.5420 hn         1 5CZ       0.351000
     42 H14          3.3980    -0.0030     1.3530 ha         1 5CZ       0.129500
     43 H15          7.1980     2.0200     2.2760 hn         1 5CZ       0.460500
     44 H16          8.6120     2.8330     1.7680 hn         1 5CZ       0.460500
     45 H17         -6.7500     2.7520    -1.3020 hn         1 5CZ       0.386400
     46 H18         -8.6620     0.8570     1.4200 hn         1 5CZ       0.469000
     47 H19         -9.3900     2.2540     0.7370 hn         1 5CZ       0.469000
@<TRIPOS>BOND
     1     1     2 ar  
     2     1     3 ar  
     3     1     4 1   
     4     2    18 ar  
     5     2    29 1   
     6     3    20 ar  
     7     3    30 1   
     8     4     5 2   
     9     4    21 1   
    10     5     6 1   
    11     5    31 1   
    12     6     7 ar  
    13     6    13 ar  
    14     7    16 ar  
    15     7    21 1   
    16     8     9 ar  
    17     8    22 1   
    18     8    24 ar  
    19     9    10 ar  
    20     9    32 1   
    21    10    23 ar  
    22    10    33 1   
    23    11    23 ar  
    24    11    24 ar  
    25    11    34 1   
    26    12    25 2   
    27    12    35 1   
    28    13    14 ar  
    29    13    36 1   
    30    14    15 ar  
    31    14    37 1   
    32    15    16 ar  
    33    15    17 1   
    34    16    38 1   
    35    17    27 2   
    36    17    28 1   
    37    18    19 ar  
    38    18    39 1   
    39    19    20 ar  
    40    19    22 1   
    41    20    40 1   
    42    21    41 1   
    43    23    25 1   
    44    24    42 1   
    45    25    26 1   
    46    26    43 1   
    47    26    44 1   
    48    27    45 1   
    49    28    46 1   
    50    28    47 1   
@<TRIPOS>SUBSTRUCTURE
     1 5CZ         1 TEMP              0 ****  ****    0 ROOT
