@<TRIPOS>MOLECULE
5D0
   63    66     1     0     0
SMALL
No Charge or Current Charge


@<TRIPOS>ATOM
      1 C1          -2.5550     0.2890     0.1640 c3         1 5D0       0.166100
      2 C2          -1.2780     1.1470     0.0780 c3         1 5D0      -0.082400
      3 C3           0.0170     0.3100     0.1640 c3         1 5D0      -0.073400
      4 C8           5.0100     0.8000     0.1180 ca         1 5D0       0.159600
      5 C9           5.3550    -0.5600     0.2620 ca         1 5D0      -0.184000
      6 C10          6.7070    -0.9450     0.3030 ca         1 5D0      -0.042750
      7 C11          7.7380     0.0160     0.1820 ca         1 5D0      -0.178900
      8 C12          7.3790     1.3780     0.0640 ca         1 5D0      -0.042750
      9 C13          6.0270     1.7600     0.0250 ca         1 5D0      -0.184000
     10 C14         -4.9830     0.7160     0.1150 ca         1 5D0       0.159600
     11 C15         -6.0150     1.6600     0.0200 ca         1 5D0      -0.184000
     12 C16         -7.3600     1.2550     0.0590 ca         1 5D0      -0.042750
     13 C19         -5.3050    -0.6490     0.2590 ca         1 5D0      -0.184000
     14 C20          9.1770    -0.3960     0.2640 ce         1 5D0       0.684300
     15 C21         -9.1320    -0.5410     0.2540 ce         1 5D0       0.684300
     16 N23         -9.4340    -1.8050    -0.2550 nu         1 5D0      -0.945900
     17 N25          9.5120    -1.5100     0.8330 n2         1 5D0      -0.675900
     18 C27        -11.7080    -1.0000    -0.7250 c6         1 5D0      -0.130400
     19 C30         11.5340    -1.5980    -0.6320 c6         1 5D0      -0.130400
     20 C31         10.8840    -2.0360     0.6940 c6         1 5D0       0.120800
     21 C4           1.2990     1.1690     0.0780 c3         1 5D0      -0.082400
     22 C5           2.5900     0.3320     0.1650 c3         1 5D0       0.166100
     23 O6           3.7030     1.2370     0.0750 os         1 5D0      -0.348100
     24 O7          -3.6830     1.1750     0.0720 os         1 5D0      -0.348100
     25 C17         -7.6970    -0.1130     0.1750 ca         1 5D0      -0.178900
     26 C18         -6.6510    -1.0570     0.2960 ca         1 5D0      -0.042750
     27 N22        -10.0490     0.2960     0.6220 n2         1 5D0      -0.675900
     28 N24         10.0890     0.3820    -0.4520 nu         1 5D0      -0.945900
     29 C26        -11.4760    -0.0430     0.4600 c6         1 5D0       0.120800
     30 C28        -10.8050    -2.2360    -0.5730 c6         1 5D0       0.220800
     31 C29         11.4550    -0.0680    -0.7640 c6         1 5D0       0.220800
     32 H1          -2.5650    -0.4380    -0.6600 h1         1 5D0       0.035200
     33 H2          -2.5670    -0.2570     1.1160 h1         1 5D0       0.035200
     34 H3          -1.2870     1.7050    -0.8670 hc         1 5D0       0.058450
     35 H4          -1.2890     1.8840     0.8900 hc         1 5D0       0.058450
     36 H5           0.0220    -0.2510     1.1080 hc         1 5D0       0.041200
     37 H6           0.0240    -0.4290    -0.6470 hc         1 5D0       0.041200
     38 H7           4.5940    -1.3290     0.3470 ha         1 5D0       0.123000
     39 H8           6.9500    -2.0000     0.4170 ha         1 5D0       0.125000
     40 H9           8.1430     2.1520     0.0150 ha         1 5D0       0.125000
     41 H10          5.7650     2.8110    -0.0710 ha         1 5D0       0.123000
     42 H11         -5.7710     2.7140    -0.0810 ha         1 5D0       0.123000
     43 H12         -8.1410     2.0100    -0.0150 ha         1 5D0       0.125000
     44 H13         -4.5310    -1.4040     0.3500 ha         1 5D0       0.123000
     45 H15         -8.6590    -2.2590    -0.7320 hn         1 5D0       0.482000
     46 H17        -12.7620    -1.3010    -0.7760 hc         1 5D0       0.051700
     47 H18        -11.4760    -0.4850    -1.6670 hc         1 5D0       0.051700
     48 H19         12.5790    -1.9320    -0.6770 hc         1 5D0       0.051700
     49 H20         11.0110    -2.0710    -1.4740 hc         1 5D0       0.051700
     50 H21         11.4880    -1.6720     1.5390 h1         1 5D0       0.053200
     51 H22         10.8580    -3.1340     0.7510 h1         1 5D0       0.053200
     52 H23          1.2990     1.7270    -0.8660 hc         1 5D0       0.058450
     53 H24          1.2970     1.9060     0.8910 hc         1 5D0       0.058450
     54 H25          2.6100    -0.2140     1.1180 h1         1 5D0       0.035200
     55 H26          2.6120    -0.3940    -0.6580 h1         1 5D0       0.035200
     56 H27         -6.8720    -2.1140     0.4340 ha         1 5D0       0.125000
     57 H30          9.6610     1.0850    -1.0480 hn         1 5D0       0.482000
     58 H31        -12.0530     0.8820     0.3100 h1         1 5D0       0.053200
     59 H32        -11.8350    -0.5130     1.3890 h1         1 5D0       0.053200
     60 H33        -10.8280    -2.8290    -1.4990 h1         1 5D0       0.041700
     61 H34        -11.1930    -2.8710     0.2370 h1         1 5D0       0.041700
     62 H35         12.1680     0.3940    -0.0640 h1         1 5D0       0.041700
     63 H36         11.7470     0.2330    -1.7810 h1         1 5D0       0.041700
@<TRIPOS>BOND
     1     1     2 1   
     2     1    24 1   
     3     1    32 1   
     4     1    33 1   
     5     2     3 1   
     6     2    34 1   
     7     2    35 1   
     8     3    21 1   
     9     3    36 1   
    10     3    37 1   
    11     4     5 ar  
    12     4     9 ar  
    13     4    23 1   
    14     5     6 ar  
    15     5    38 1   
    16     6     7 ar  
    17     6    39 1   
    18     7     8 ar  
    19     7    14 1   
    20     8     9 ar  
    21     8    40 1   
    22     9    41 1   
    23    10    11 ar  
    24    10    13 ar  
    25    10    24 1   
    26    11    12 ar  
    27    11    42 1   
    28    12    25 ar  
    29    12    43 1   
    30    13    26 ar  
    31    13    44 1   
    32    14    17 2   
    33    14    28 1   
    34    15    16 1   
    35    15    25 1   
    36    15    27 2   
    37    16    30 1   
    38    16    45 1   
    39    17    20 1   
    40    18    29 1   
    41    18    30 1   
    42    18    46 1   
    43    18    47 1   
    44    19    20 1   
    45    19    31 1   
    46    19    48 1   
    47    19    49 1   
    48    20    50 1   
    49    20    51 1   
    50    21    22 1   
    51    21    52 1   
    52    21    53 1   
    53    22    23 1   
    54    22    54 1   
    55    22    55 1   
    56    25    26 ar  
    57    26    56 1   
    58    27    29 1   
    59    28    31 1   
    60    28    57 1   
    61    29    58 1   
    62    29    59 1   
    63    30    60 1   
    64    30    61 1   
    65    31    62 1   
    66    31    63 1   
@<TRIPOS>SUBSTRUCTURE
     1 5D0         1 TEMP              0 ****  ****    0 ROOT
