@<TRIPOS>MOLECULE
5D0
   63    66     1     0     0
SMALL
bcc


@<TRIPOS>ATOM
      1 C1          -2.5030     0.4940     0.0330 c3         1 5D0       0.142900
      2 C2          -1.2570     1.3530     0.0190 c3         1 5D0      -0.082400
      3 C3           0.0070     0.5000     0.0320 c3         1 5D0      -0.073400
      4 C8           4.8800     0.8360     0.0270 ca         1 5D0       0.159600
      5 C9           5.1610    -0.5260     0.1340 ca         1 5D0      -0.202000
      6 C10          6.4780    -0.9580     0.1790 ca         1 5D0      -0.060750
      7 C11          7.5410    -0.0640     0.1080 ca         1 5D0      -0.178900
      8 C12          7.2460     1.2960     0.0030 ca         1 5D0      -0.060750
      9 C13          5.9390     1.7440    -0.0350 ca         1 5D0      -0.202000
     10 C14         -4.8640     0.8190     0.0610 ca         1 5D0       0.159600
     11 C15         -5.9330     1.7220     0.0920 ca         1 5D0      -0.202000
     12 C16         -7.2330     1.2630     0.1170 ca         1 5D0      -0.060750
     13 C19         -5.1330    -0.5470     0.0570 ca         1 5D0      -0.202000
     14 C20          8.9380    -0.5650     0.1640 ce         1 5D0       0.684300
     15 C21         -8.9280    -0.5670     0.1410 ce         1 5D0       0.684300
     16 N23         -9.1570    -1.7990    -0.3920 nu         1 5D0      -0.890700
     17 N25          9.1730    -1.6610     0.7820 n2         1 5D0      -0.675900
     18 C27        -11.5130    -1.2260    -0.4600 c6         1 5D0      -0.130400
     19 C30         11.3610    -1.6900    -0.4070 c6         1 5D0      -0.130400
     20 C31         10.5300    -2.1660     0.7770 c6         1 5D0       0.120800
     21 C4           1.2700     1.3520    -0.0030 c3         1 5D0      -0.082400
     22 C5           2.5180     0.4950     0.0400 c3         1 5D0       0.142900
     23 O6           3.6440     1.3580    -0.0220 os         1 5D0      -0.324900
     24 O7          -3.6320     1.3540     0.0410 os         1 5D0      -0.324900
     25 C17         -7.5180    -0.1040     0.1030 ca         1 5D0      -0.178900
     26 C18         -6.4490    -0.9920     0.0760 ca         1 5D0      -0.060750
     27 N22         -9.8080     0.1870     0.6850 n2         1 5D0      -0.675900
     28 N24          9.8690     0.2230    -0.4380 nu         1 5D0      -0.890700
     29 C26        -11.1890    -0.2470     0.6600 c6         1 5D0       0.120800
     30 C28        -10.4950    -2.3530    -0.4400 c6         1 5D0       0.220800
     31 C29         11.2610    -0.1770    -0.5010 c6         1 5D0       0.220800
     32 H1          -2.5240    -0.1570    -0.8490 h1         1 5D0       0.035200
     33 H2          -2.5090    -0.1500     0.9210 h1         1 5D0       0.035200
     34 H3          -1.2620     1.9890    -0.8710 hc         1 5D0       0.058450
     35 H4          -1.2600     2.0160     0.8880 hc         1 5D0       0.058450
     36 H5           0.0130    -0.1310     0.9270 hc         1 5D0       0.041200
     37 H6           0.0000    -0.1800    -0.8260 hc         1 5D0       0.041200
     38 H7           4.3720    -1.2640     0.1800 ha         1 5D0       0.141000
     39 H8           6.6830    -2.0170     0.2650 ha         1 5D0       0.143000
     40 H9           8.0400     2.0320    -0.0280 ha         1 5D0       0.143000
     41 H10          5.7290     2.8040    -0.1060 ha         1 5D0       0.141000
     42 H11         -5.7300     2.7860     0.0940 ha         1 5D0       0.141000
     43 H12         -8.0480     1.9730     0.1440 ha         1 5D0       0.143000
     44 H13         -4.3390    -1.2800     0.0460 ha         1 5D0       0.141000
     45 H15         -8.4830    -2.1590    -1.0460 hn         1 5D0       0.426800
     46 H17        -12.5220    -1.6250    -0.3440 hc         1 5D0       0.051700
     47 H18        -11.4750    -0.7140    -1.4250 hc         1 5D0       0.051700
     48 H19         12.4030    -1.9930    -0.2940 hc         1 5D0       0.051700
     49 H20         10.9880    -2.1420    -1.3300 hc         1 5D0       0.051700
     50 H21         11.0300    -1.8760     1.7090 h1         1 5D0       0.053200
     51 H22         10.4920    -3.2590     0.7910 h1         1 5D0       0.053200
     52 H23          1.2760     1.9620    -0.9110 hc         1 5D0       0.058450
     53 H24          1.2720     2.0410     0.8470 hc         1 5D0       0.058450
     54 H25          2.5400    -0.0960     0.9630 h1         1 5D0       0.035200
     55 H26          2.5280    -0.2050    -0.8030 h1         1 5D0       0.035200
     56 H27         -6.6200    -2.0610     0.0920 ha         1 5D0       0.143000
     57 H30          9.5490     0.8900    -1.1200 hn         1 5D0       0.426800
     58 H31        -11.8260     0.6380     0.5770 h1         1 5D0       0.053200
     59 H32        -11.4450    -0.7010     1.6250 h1         1 5D0       0.053200
     60 H33        -10.5770    -2.9810    -1.3260 h1         1 5D0       0.041700
     61 H34        -10.6690    -2.9990     0.4260 h1         1 5D0       0.041700
     62 H35         11.8270     0.2850     0.3140 h1         1 5D0       0.041700
     63 H36         11.6850     0.1920    -1.4340 h1         1 5D0       0.041700
@<TRIPOS>BOND
     1     1     2 1   
     2     1    24 1   
     3     1    32 1   
     4     1    33 1   
     5     2     3 1   
     6     2    34 1   
     7     2    35 1   
     8     3    21 1   
     9     3    36 1   
    10     3    37 1   
    11     4     5 ar  
    12     4     9 ar  
    13     4    23 1   
    14     5     6 ar  
    15     5    38 1   
    16     6     7 ar  
    17     6    39 1   
    18     7     8 ar  
    19     7    14 1   
    20     8     9 ar  
    21     8    40 1   
    22     9    41 1   
    23    10    11 ar  
    24    10    13 ar  
    25    10    24 1   
    26    11    12 ar  
    27    11    42 1   
    28    12    25 ar  
    29    12    43 1   
    30    13    26 ar  
    31    13    44 1   
    32    14    17 2   
    33    14    28 1   
    34    15    16 1   
    35    15    25 1   
    36    15    27 2   
    37    16    30 1   
    38    16    45 1   
    39    17    20 1   
    40    18    29 1   
    41    18    30 1   
    42    18    46 1   
    43    18    47 1   
    44    19    20 1   
    45    19    31 1   
    46    19    48 1   
    47    19    49 1   
    48    20    50 1   
    49    20    51 1   
    50    21    22 1   
    51    21    52 1   
    52    21    53 1   
    53    22    23 1   
    54    22    54 1   
    55    22    55 1   
    56    25    26 ar  
    57    26    56 1   
    58    27    29 1   
    59    28    31 1   
    60    28    57 1   
    61    29    58 1   
    62    29    59 1   
    63    30    60 1   
    64    30    61 1   
    65    31    62 1   
    66    31    63 1   
@<TRIPOS>SUBSTRUCTURE
     1 5D0         1 TEMP              0 ****  ****    0 ROOT
