@<TRIPOS>MOLECULE
5D1
   69    72     1     0     0
SMALL
bcc


@<TRIPOS>ATOM
      1 CBG         10.0350     3.3960    -0.1070 c3         1 5D1      -0.045800
      2 CBC          9.4320     2.0720    -0.4790 ca         1 5D1      -0.078300
      3 CBB          8.0500     1.9340    -0.6110 ca         1 5D1      -0.128000
      4 CBD         10.2280     0.9470    -0.6690 ca         1 5D1      -0.128000
      5 CBE          9.6530    -0.2810    -0.9750 ca         1 5D1      -0.132000
      6 CBF          8.2780    -0.4010    -1.1010 ca         1 5D1      -0.109000
      7 CBA          7.4610     0.7140    -0.9210 ca         1 5D1      -0.084300
      8 CAZ          5.9680     0.6040    -1.0910 c3         1 5D1       0.215100
      9 NAW          5.4110    -0.5380    -0.3990 n3         1 5D1      -0.722600
     10 CAX          4.0480    -0.8080    -0.8230 c6         1 5D1       0.164300
     11 CAY          3.5160    -2.0780    -0.1770 c6         1 5D1      -0.067900
     12 CAV          5.4990    -0.3900     1.0420 c6         1 5D1       0.164300
     13 CAU          5.0210    -1.6470     1.7550 c6         1 5D1      -0.067900
     14 CAT          3.6000    -2.0380     1.3480 c6         1 5D1      -0.080700
     15 CBH          2.5810    -1.0960     1.9960 c3         1 5D1       0.098000
     16 NAR          1.2110    -1.4400     1.6920 ns         1 5D1      -0.571900
     17 CAQ          0.3990    -0.7240     0.8980 c          1 5D1       0.669100
     18 OAS          0.7200     0.3410     0.3860 o          1 5D1      -0.604100
     19 CAP         -0.9650    -1.3420     0.6620 c3         1 5D1      -0.159400
     20 CAO         -2.0710    -0.2960     0.6100 c3         1 5D1      -0.073400
     21 CAN         -3.4050    -0.9460     0.3160 c3         1 5D1       0.137400
     22 OAM         -4.3860     0.0840     0.2530 os         1 5D1      -0.314900
     23 CAJ         -5.6400    -0.2300    -0.0480 cc         1 5D1       0.243900
     24 CAB         -6.5390     0.8950    -0.1450 ca         1 5D1      -0.142800
     25 CAC         -6.1090     2.2110     0.0600 ca         1 5D1      -0.049000
     26 CAD         -6.9870     3.2660    -0.0460 ca         1 5D1      -0.175000
     27 CAE         -8.3200     3.0120    -0.3620 ca         1 5D1      -0.070000
     28 CAF         -8.7680     1.7230    -0.5670 ca         1 5D1      -0.193000
     29 CAA         -7.8850     0.6380    -0.4640 ca         1 5D1       0.119600
     30 NAG         -8.3230    -0.6550    -0.6730 n          1 5D1      -0.353000
     31 CAK         -9.7230    -0.8790    -0.9940 c3         1 5D1       0.071300
     32 CAH         -7.4810    -1.7500    -0.5850 c          1 5D1       0.728700
     33 OAL         -7.8980    -2.8890    -0.7760 o          1 5D1      -0.639500
     34 CAI         -6.1020    -1.4850    -0.2610 cd         1 5D1      -0.380200
     35 H1          10.0400     3.5320     0.9760 hc         1 5D1       0.040700
     36 H2          11.0670     3.4770    -0.4470 hc         1 5D1       0.040700
     37 H3           9.4730     4.2280    -0.5320 hc         1 5D1       0.040700
     38 H4           7.4150     2.8020    -0.4630 ha         1 5D1       0.125000
     39 H5          11.3050     1.0290    -0.5770 ha         1 5D1       0.127000
     40 H6          10.2860    -1.1480    -1.1200 ha         1 5D1       0.129000
     41 H7           7.8320    -1.3590    -1.3340 ha         1 5D1       0.144000
     42 H8           5.4950     1.5510    -0.7770 h1         1 5D1       0.039200
     43 H9           5.7420     0.4920    -2.1570 h1         1 5D1       0.039200
     44 H11          3.3720     0.0370    -0.6050 h1         1 5D1       0.037700
     45 H12          4.0430    -0.9300    -1.9090 h1         1 5D1       0.037700
     46 H13          2.4890    -2.2550    -0.5060 hc         1 5D1       0.046200
     47 H14          4.1050    -2.9260    -0.5360 hc         1 5D1       0.046200
     48 H15          6.5390    -0.2000     1.3170 h1         1 5D1       0.037700
     49 H16          4.9260     0.4910     1.3850 h1         1 5D1       0.037700
     50 H17          5.7040    -2.4660     1.5140 hc         1 5D1       0.046200
     51 H18          5.0850    -1.4950     2.8360 hc         1 5D1       0.046200
     52 H19          3.3960    -3.0450     1.7300 hc         1 5D1       0.042700
     53 H20          2.7150    -1.1310     3.0800 h1         1 5D1       0.058700
     54 H21          2.7400    -0.0620     1.6950 h1         1 5D1       0.058700
     55 H22          0.8610    -2.3070     2.0670 hn         1 5D1       0.307500
     56 H23         -0.9180    -1.8800    -0.2910 hc         1 5D1       0.057700
     57 H24         -1.1830    -2.0920     1.4260 hc         1 5D1       0.057700
     58 H25         -2.1240     0.2350     1.5640 hc         1 5D1       0.071700
     59 H26         -1.8490     0.4410    -0.1630 hc         1 5D1       0.071700
     60 H27         -3.3720    -1.4840    -0.6380 h1         1 5D1       0.042700
     61 H28         -3.6690    -1.6660     1.0980 h1         1 5D1       0.042700
     62 H29         -5.0730     2.4000     0.3030 ha         1 5D1       0.149000
     63 H30         -6.6450     4.2790     0.1130 ha         1 5D1       0.139000
     64 H31         -9.0220     3.8310    -0.4500 ha         1 5D1       0.133000
     65 H32         -9.8090     1.5700    -0.8100 ha         1 5D1       0.140000
     66 H33         -9.9950    -0.3640    -1.9140 h1         1 5D1       0.054367
     67 H34         -9.8880    -1.9400    -1.1290 h1         1 5D1       0.054367
     68 H35        -10.3640    -0.5260    -0.1870 h1         1 5D1       0.054367
     69 H36         -5.4630    -2.3550    -0.1990 ha         1 5D1       0.160000
@<TRIPOS>BOND
     1     1     2 1   
     2     1    35 1   
     3     1    36 1   
     4     1    37 1   
     5     2     3 ar  
     6     2     4 ar  
     7     3     7 ar  
     8     3    38 1   
     9     4     5 ar  
    10     4    39 1   
    11     5     6 ar  
    12     5    40 1   
    13     6     7 ar  
    14     6    41 1   
    15     7     8 1   
    16     8     9 1   
    17     8    42 1   
    18     8    43 1   
    19     9    10 1   
    20     9    12 1   
    21    10    11 1   
    22    10    44 1   
    23    10    45 1   
    24    11    14 1   
    25    11    46 1   
    26    11    47 1   
    27    12    13 1   
    28    12    48 1   
    29    12    49 1   
    30    13    14 1   
    31    13    50 1   
    32    13    51 1   
    33    14    15 1   
    34    14    52 1   
    35    15    16 1   
    36    15    53 1   
    37    15    54 1   
    38    16    17 1   
    39    16    55 1   
    40    17    18 2   
    41    17    19 1   
    42    19    20 1   
    43    19    56 1   
    44    19    57 1   
    45    20    21 1   
    46    20    58 1   
    47    20    59 1   
    48    21    22 1   
    49    21    60 1   
    50    21    61 1   
    51    22    23 1   
    52    23    24 1   
    53    23    34 2   
    54    24    25 ar  
    55    24    29 ar  
    56    25    26 ar  
    57    25    62 1   
    58    26    27 ar  
    59    26    63 1   
    60    27    28 ar  
    61    27    64 1   
    62    28    29 ar  
    63    28    65 1   
    64    29    30 1   
    65    30    31 1   
    66    30    32 1   
    67    31    66 1   
    68    31    67 1   
    69    31    68 1   
    70    32    33 2   
    71    32    34 1   
    72    34    69 1   
@<TRIPOS>SUBSTRUCTURE
     1 5D1         1 TEMP              0 ****  ****    0 ROOT
