@<TRIPOS>MOLECULE
5D1
   69    72     1     0     0
SMALL
No Charge or Current Charge


@<TRIPOS>ATOM
      1 CBG          9.8330     3.4870     0.3580 c3         1 5D1      -0.045800
      2 CBC          9.4790     2.0790    -0.0970 ca         1 5D1      -0.078300
      3 CBB          8.1660     1.7750    -0.5020 ca         1 5D1      -0.110000
      4 CBD         10.4600     1.0690    -0.1080 ca         1 5D1      -0.110000
      5 CBE         10.1300    -0.2320    -0.5230 ca         1 5D1      -0.114000
      6 CBF          8.8180    -0.5300    -0.9280 ca         1 5D1      -0.091000
      7 CBA          7.8280     0.4720    -0.9200 ca         1 5D1      -0.084300
      8 CAZ          6.4020     0.1430    -1.3580 c3         1 5D1       0.215100
      9 NAW          5.6960    -0.7790    -0.4360 n3         1 5D1      -0.722600
     10 CAX          4.3840    -1.2220    -0.9860 c6         1 5D1       0.164300
     11 CAY          3.7040    -2.2700    -0.0690 c6         1 5D1      -0.067900
     12 CAV          5.5540    -0.2250     0.9420 c6         1 5D1       0.164300
     13 CAU          4.8940    -1.2470     1.9050 c6         1 5D1      -0.067900
     14 CAT          3.5180    -1.7340     1.3780 c6         1 5D1      -0.080700
     15 CBH          2.4270    -0.6240     1.4960 c3         1 5D1       0.098000
     16 NAR          1.0820    -1.1010     1.1590 ns         1 5D1      -0.504900
     17 CAQ          0.4340    -0.8700    -0.0340 c          1 5D1       0.602100
     18 OAS          0.9320    -0.2170    -0.9390 o          1 5D1      -0.604100
     19 CAP         -0.9480    -1.5200    -0.1560 c3         1 5D1      -0.159400
     20 CAO         -2.0810    -0.4690    -0.0600 c3         1 5D1      -0.073400
     21 CAN         -3.4880    -1.0840    -0.1850 c3         1 5D1       0.160600
     22 OAM         -4.4390    -0.0110    -0.0760 os         1 5D1      -0.338100
     23 CAJ         -5.8010    -0.2040    -0.1450 cc         1 5D1       0.243900
     24 CAB         -6.7040     0.9290    -0.0210 ca         1 5D1      -0.142800
     25 CAC         -6.1980     2.2320     0.1790 ca         1 5D1      -0.031000
     26 CAD         -7.0730     3.3210     0.3090 ca         1 5D1      -0.157000
     27 CAE         -8.4580     3.1170     0.2420 ca         1 5D1      -0.052000
     28 CAF         -8.9670     1.8240     0.0420 ca         1 5D1      -0.175000
     29 CAA         -8.0960     0.7160    -0.0990 ca         1 5D1       0.119600
     30 NAG         -8.5970    -0.6250    -0.2950 n          1 5D1      -0.286000
     31 CAK        -10.0640    -0.8420    -0.4020 c3         1 5D1       0.071300
     32 CAH         -7.7400    -1.7470    -0.4080 c          1 5D1       0.586200
     33 OAL         -8.1460    -2.8890    -0.5680 o          1 5D1      -0.564000
     34 CAI         -6.3020    -1.4710    -0.3240 cd         1 5D1      -0.430200
     35 H1           9.6490     3.6080     1.4320 hc         1 5D1       0.040700
     36 H2          10.8890     3.7150     0.1710 hc         1 5D1       0.040700
     37 H3           9.2360     4.2390    -0.1710 hc         1 5D1       0.040700
     38 H4           7.4040     2.5510    -0.4890 ha         1 5D1       0.107000
     39 H5          11.4770     1.2910     0.2070 ha         1 5D1       0.109000
     40 H6          10.8900    -1.0100    -0.5290 ha         1 5D1       0.111000
     41 H7           8.5650    -1.5400    -1.2440 ha         1 5D1       0.126000
     42 H8           5.8320     1.0770    -1.4630 h1         1 5D1       0.039200
     43 H9           6.4570    -0.3070    -2.3590 h1         1 5D1       0.039200
     44 H11          3.7140    -0.3600    -1.1160 h1         1 5D1       0.037700
     45 H12          4.5240    -1.6700    -1.9810 h1         1 5D1       0.037700
     46 H13          2.7430    -2.5770    -0.4990 hc         1 5D1       0.046200
     47 H14          4.3250    -3.1760    -0.0430 hc         1 5D1       0.046200
     48 H15          6.5380     0.0440     1.3530 h1         1 5D1       0.037700
     49 H16          4.9550     0.6980     0.9230 h1         1 5D1       0.037700
     50 H17          5.5660    -2.1080     2.0250 hc         1 5D1       0.046200
     51 H18          4.7860    -0.8020     2.9030 hc         1 5D1       0.046200
     52 H19          3.1790    -2.5620     2.0170 hc         1 5D1       0.042700
     53 H20          2.4060    -0.2630     2.5330 h1         1 5D1       0.058700
     54 H21          2.6890     0.2300     0.8580 h1         1 5D1       0.058700
     55 H22          0.5860    -1.6600     1.8430 hn         1 5D1       0.307500
     56 H23         -1.0160    -2.0160    -1.1320 hc         1 5D1       0.057700
     57 H24         -1.0880    -2.2580     0.6440 hc         1 5D1       0.057700
     58 H25         -2.0070     0.0590     0.8990 hc         1 5D1       0.071700
     59 H26         -1.9500     0.2810    -0.8500 hc         1 5D1       0.071700
     60 H27         -3.5810    -1.5900    -1.1550 h1         1 5D1       0.042700
     61 H28         -3.6380    -1.8200     0.6160 h1         1 5D1       0.042700
     62 H29         -5.1260     2.4050     0.2380 ha         1 5D1       0.131000
     63 H30         -6.6770     4.3220     0.4640 ha         1 5D1       0.121000
     64 H31         -9.1370     3.9600     0.3460 ha         1 5D1       0.115000
     65 H32        -10.0450     1.7040    -0.0010 ha         1 5D1       0.122000
     66 H33        -10.4660    -0.2390    -1.2260 h1         1 5D1       0.054367
     67 H34        -10.3160    -1.8910    -0.5960 h1         1 5D1       0.054367
     68 H35        -10.5480    -0.5410     0.5360 h1         1 5D1       0.054367
     69 H36         -5.6900    -2.3560    -0.4190 ha         1 5D1       0.210000
@<TRIPOS>BOND
     1     1     2 1   
     2     1    35 1   
     3     1    36 1   
     4     1    37 1   
     5     2     3 ar  
     6     2     4 ar  
     7     3     7 ar  
     8     3    38 1   
     9     4     5 ar  
    10     4    39 1   
    11     5     6 ar  
    12     5    40 1   
    13     6     7 ar  
    14     6    41 1   
    15     7     8 1   
    16     8     9 1   
    17     8    42 1   
    18     8    43 1   
    19     9    10 1   
    20     9    12 1   
    21    10    11 1   
    22    10    44 1   
    23    10    45 1   
    24    11    14 1   
    25    11    46 1   
    26    11    47 1   
    27    12    13 1   
    28    12    48 1   
    29    12    49 1   
    30    13    14 1   
    31    13    50 1   
    32    13    51 1   
    33    14    15 1   
    34    14    52 1   
    35    15    16 1   
    36    15    53 1   
    37    15    54 1   
    38    16    17 1   
    39    16    55 1   
    40    17    18 2   
    41    17    19 1   
    42    19    20 1   
    43    19    56 1   
    44    19    57 1   
    45    20    21 1   
    46    20    58 1   
    47    20    59 1   
    48    21    22 1   
    49    21    60 1   
    50    21    61 1   
    51    22    23 1   
    52    23    24 1   
    53    23    34 2   
    54    24    25 ar  
    55    24    29 ar  
    56    25    26 ar  
    57    25    62 1   
    58    26    27 ar  
    59    26    63 1   
    60    27    28 ar  
    61    27    64 1   
    62    28    29 ar  
    63    28    65 1   
    64    29    30 1   
    65    30    31 1   
    66    30    32 1   
    67    31    66 1   
    68    31    67 1   
    69    31    68 1   
    70    32    33 2   
    71    32    34 1   
    72    34    69 1   
@<TRIPOS>SUBSTRUCTURE
     1 5D1         1 TEMP              0 ****  ****    0 ROOT
