@<TRIPOS>MOLECULE
5D2
   68    72     1     0     0
SMALL
No Charge or Current Charge


@<TRIPOS>ATOM
      1 CAB          8.0660     1.6730     0.2440 ca         1 5D2      -0.179000
      2 CAA          9.2670     2.3880     0.1300 ca         1 5D2       0.158000
      3 Cl           9.3790     4.0170     0.7800 cl         1 5D2      -0.215000
      4 CAF         10.3800     1.8090    -0.4980 ca         1 5D2      -0.145000
      5 CAE         10.2910     0.5070    -1.0150 ca         1 5D2      -0.070000
      6 CAD          9.0860    -0.2080    -0.8990 ca         1 5D2      -0.165000
      7 CAC          7.9650     0.3650    -0.2690 ca         1 5D2       0.320000
      8 NAH          6.7640    -0.3750    -0.1660 nh         1 5D2      -0.792400
      9 CAM          6.7670    -1.7300     0.4720 c6         1 5D2       0.202800
     10 CAL          5.5540    -2.6070     0.0230 c6         1 5D2       0.157300
     11 CAI          5.4360     0.3090    -0.0570 c6         1 5D2       0.202800
     12 CAJ          4.2450    -0.6090    -0.4900 c6         1 5D2       0.157300
     13 NAK          4.2340    -1.9300     0.2200 n3         1 5D2      -0.719600
     14 CAN          3.0980    -2.8060    -0.1570 c3         1 5D2       0.172800
     15 CAO          1.7060    -2.2530     0.2160 c3         1 5D2      -0.103400
     16 CAP          0.5800    -3.2720    -0.0410 c3         1 5D2       0.100000
     17 NAQ         -0.7370    -2.7450     0.3280 ns         1 5D2      -0.505900
     18 CAR         -1.4760    -1.8670    -0.4350 c          1 5D2       0.602100
     19 OAT         -1.0930    -1.4730    -1.5280 o          1 5D2      -0.598100
     20 CAS         -2.8180    -1.4130     0.1730 c6         1 5D2      -0.143700
     21 CAY         -4.0560    -1.8850    -0.6370 c6         1 5D2      -0.076400
     22 CAX         -5.3770    -1.4190     0.0260 c6         1 5D2       0.211300
     23 CAU         -2.8650     0.1030     0.5030 c6         1 5D2      -0.076400
     24 CAV         -4.2230     0.4890     1.1390 c6         1 5D2       0.211300
     25 NAW         -5.3530     0.0530     0.2690 nh         1 5D2      -0.764300
     26 CAZ         -6.4860     0.8300     0.1310 cc         1 5D2       0.576900
     27 NBE         -7.6640     0.2460     0.3240 nd         1 5D2      -0.564800
     28 NBD         -8.6980     1.1570     0.1530 na         1 5D2       0.147000
     29 CBH        -10.0550     0.9040     0.2790 cc         1 5D2       0.360800
     30 CBI        -10.6550    -0.4290     0.6300 c3         1 5D2      -0.093400
     31 NBG        -10.7470     2.0130     0.0440 nd         1 5D2      -0.376700
     32 NBF         -9.8590     3.0210    -0.2430 nd         1 5D2      -0.068000
     33 CBC         -8.6520     2.5020    -0.1750 cc         1 5D2      -0.170000
     34 CBB         -7.3870     3.0180    -0.3670 cd         1 5D2      -0.004000
     35 CBA         -6.2900     2.2060    -0.2210 cc         1 5D2      -0.172000
     36 H1           7.2220     2.1380     0.7430 ha         1 5D2       0.127000
     37 H2          11.3080     2.3690    -0.5830 ha         1 5D2       0.131000
     38 H3          11.1500     0.0550    -1.5060 ha         1 5D2       0.114000
     39 H4           9.0210    -1.2090    -1.3130 ha         1 5D2       0.116000
     40 H5           7.6920    -2.2740     0.2320 h1         1 5D2       0.046700
     41 H6           6.7340    -1.6200     1.5660 h1         1 5D2       0.046700
     42 H7           5.6880    -2.8660    -1.0370 h1         1 5D2       0.042200
     43 H8           5.5840    -3.5510     0.5870 h1         1 5D2       0.042200
     44 H9           5.2690     0.6310     0.9820 h1         1 5D2       0.046700
     45 H10          5.4190     1.2110    -0.6870 h1         1 5D2       0.046700
     46 H11          3.3150    -0.0560    -0.3000 h1         1 5D2       0.042200
     47 H12          4.3070    -0.7670    -1.5760 h1         1 5D2       0.042200
     48 H14          3.1200    -3.0060    -1.2380 h1         1 5D2       0.032700
     49 H15          3.2140    -3.7750     0.3490 h1         1 5D2       0.032700
     50 H16          1.7030    -1.9740     1.2770 hc         1 5D2       0.054200
     51 H17          1.5010    -1.3450    -0.3610 hc         1 5D2       0.054200
     52 H18          0.5690    -3.5520    -1.1030 h1         1 5D2       0.057200
     53 H19          0.7680    -4.1820     0.5450 h1         1 5D2       0.057200
     54 H20         -1.1340    -3.0210     1.2190 hn         1 5D2       0.310500
     55 H21         -2.8880    -1.9270     1.1420 hc         1 5D2       0.052700
     56 H22         -4.0050    -1.4800    -1.6570 hc         1 5D2       0.064700
     57 H23         -4.0560    -2.9790    -0.7340 hc         1 5D2       0.064700
     58 H24         -6.2130    -1.6990    -0.6310 h1         1 5D2       0.050450
     59 H25         -5.5170    -1.9540     0.9780 h1         1 5D2       0.050450
     60 H26         -2.0470     0.3710     1.1850 hc         1 5D2       0.064700
     61 H27         -2.7160     0.6880    -0.4140 hc         1 5D2       0.064700
     62 H28         -4.3080     0.0050     2.1230 h1         1 5D2       0.050450
     63 H29         -4.2420     1.5730     1.3200 h1         1 5D2       0.050450
     64 H30        -10.2970    -0.7670     1.6100 hc         1 5D2       0.060367
     65 H31        -11.7490    -0.3730     0.6680 hc         1 5D2       0.060367
     66 H32        -10.3780    -1.1850    -0.1140 hc         1 5D2       0.060367
     67 H33         -7.2590     4.0620    -0.6350 ha         1 5D2       0.151000
     68 H34         -5.2900     2.5860    -0.3840 ha         1 5D2       0.136000
@<TRIPOS>BOND
     1     1     2 ar  
     2     1     7 ar  
     3     1    36 1   
     4     2     3 1   
     5     2     4 ar  
     6     4     5 ar  
     7     4    37 1   
     8     5     6 ar  
     9     5    38 1   
    10     6     7 ar  
    11     6    39 1   
    12     7     8 1   
    13     8     9 1   
    14     8    11 1   
    15     9    10 1   
    16     9    40 1   
    17     9    41 1   
    18    10    13 1   
    19    10    42 1   
    20    10    43 1   
    21    11    12 1   
    22    11    44 1   
    23    11    45 1   
    24    12    13 1   
    25    12    46 1   
    26    12    47 1   
    27    13    14 1   
    28    14    15 1   
    29    14    48 1   
    30    14    49 1   
    31    15    16 1   
    32    15    50 1   
    33    15    51 1   
    34    16    17 1   
    35    16    52 1   
    36    16    53 1   
    37    17    18 1   
    38    17    54 1   
    39    18    19 2   
    40    18    20 1   
    41    20    21 1   
    42    20    23 1   
    43    20    55 1   
    44    21    22 1   
    45    21    56 1   
    46    21    57 1   
    47    22    25 1   
    48    22    58 1   
    49    22    59 1   
    50    23    24 1   
    51    23    60 1   
    52    23    61 1   
    53    24    25 1   
    54    24    62 1   
    55    24    63 1   
    56    25    26 1   
    57    26    27 2   
    58    26    35 1   
    59    27    28 1   
    60    28    29 1   
    61    28    33 1   
    62    29    30 1   
    63    29    31 2   
    64    30    64 1   
    65    30    65 1   
    66    30    66 1   
    67    31    32 1   
    68    32    33 2   
    69    33    34 1   
    70    34    35 2   
    71    34    67 1   
    72    35    68 1   
@<TRIPOS>SUBSTRUCTURE
     1 5D2         1 TEMP              0 ****  ****    0 ROOT
