@<TRIPOS>MOLECULE
5D2
   68    72     1     0     0
SMALL
abcg2


@<TRIPOS>ATOM
      1 CAB          8.4160     1.0910     0.4060 ca         1 5D2      -0.179000
      2 CAA          9.7070     1.5620     0.5830 ca         1 5D2       0.158000
      3 CL           9.9240     3.2490     0.9440 cl         1 5D2      -0.215000
      4 CAF         10.8180     0.7440     0.4990 ca         1 5D2      -0.145000
      5 CAE         10.5950    -0.5990     0.2180 ca         1 5D2      -0.070000
      6 CAD          9.3210    -1.0980     0.0250 ca         1 5D2      -0.165000
      7 CAC          8.1930    -0.2620     0.1060 ca         1 5D2       0.320000
      8 NAH          6.9200    -0.7530    -0.1330 nh         1 5D2      -0.792400
      9 CAM          6.5840    -2.0790     0.3660 c6         1 5D2       0.202800
     10 CAL          5.3390    -2.6180    -0.3080 c6         1 5D2       0.157300
     11 CAI          5.7980     0.1640    -0.0580 c6         1 5D2       0.202800
     12 CAJ          4.5600    -0.4320    -0.7020 c6         1 5D2       0.157300
     13 NAK          4.2240    -1.7150    -0.1200 n3         1 5D2      -0.719600
     14 CAN          2.9870    -2.2640    -0.6420 c3         1 5D2       0.172800
     15 CAO          1.7490    -1.5310    -0.1430 c3         1 5D2      -0.103400
     16 CAP          0.4780    -2.2820    -0.5270 c3         1 5D2       0.100000
     17 NAQ         -0.7240    -1.6290    -0.0630 ns         1 5D2      -0.505900
     18 CAR         -1.4870    -0.8240    -0.8210 c          1 5D2       0.602100
     19 OAT         -1.2400    -0.5800    -1.9950 o          1 5D2      -0.598100
     20 CAS         -2.7180    -0.2790    -0.1180 c6         1 5D2      -0.143700
     21 CAY         -3.8420    -1.3190    -0.1440 c6         1 5D2      -0.076400
     22 CAX         -5.1060    -0.7920     0.5170 c6         1 5D2       0.211300
     23 CAU         -3.2170     1.0140    -0.7480 c6         1 5D2      -0.076400
     24 CAV         -4.4850     1.4930    -0.0630 c6         1 5D2       0.211300
     25 NAW         -5.5200     0.4640    -0.0890 nh         1 5D2      -0.764300
     26 CAZ         -6.8400     0.8070    -0.0440 cc         1 5D2       0.576900
     27 NBE         -7.6520     0.0180     0.6080 nd         1 5D2      -0.564800
     28 NBD         -8.9500     0.3380     0.5380 na         1 5D2       0.147000
     29 CBH         -9.9810    -0.3350     1.1000 cc         1 5D2       0.360800
     30 CBI         -9.8220    -1.5750     1.8890 c3         1 5D2      -0.093400
     31 NBG        -11.0920     0.3060     0.8250 nd         1 5D2      -0.376700
     32 NBF        -10.8090     1.3960     0.0860 nd         1 5D2      -0.068000
     33 CBC         -9.5070     1.4140    -0.0860 cc         1 5D2      -0.170000
     34 CBB         -8.6240     2.2810    -0.7770 cd         1 5D2      -0.004000
     35 CBA         -7.3100     1.9770    -0.7600 cc         1 5D2      -0.172000
     36 H1           7.5970     1.7860     0.5150 ha         1 5D2       0.127000
     37 H2          11.8170     1.1310     0.6430 ha         1 5D2       0.131000
     38 H3          11.4390    -1.2710     0.1390 ha         1 5D2       0.114000
     39 H4           9.2150    -2.1470    -0.2120 ha         1 5D2       0.116000
     40 H5           7.3960    -2.7760     0.1740 h1         1 5D2       0.046700
     41 H6           6.4250    -2.0520     1.4530 h1         1 5D2       0.046700
     42 H7           5.5520    -2.7950    -1.3760 h1         1 5D2       0.042200
     43 H8           5.1020    -3.5860     0.1390 h1         1 5D2       0.042200
     44 H9           5.5770     0.4460     0.9810 h1         1 5D2       0.046700
     45 H10          6.0360     1.0770    -0.6030 h1         1 5D2       0.046700
     46 H11          3.7400     0.2730    -0.5580 h1         1 5D2       0.042200
     47 H12          4.7260    -0.5170    -1.7900 h1         1 5D2       0.042200
     48 H14          2.9850    -2.2890    -1.7460 h1         1 5D2       0.032700
     49 H15          2.9240    -3.3060    -0.3150 h1         1 5D2       0.032700
     50 H16          1.8080    -1.4420     0.9450 hc         1 5D2       0.054200
     51 H17          1.6980    -0.5170    -0.5470 hc         1 5D2       0.054200
     52 H18          0.4140    -2.3930    -1.6090 h1         1 5D2       0.057200
     53 H19          0.5030    -3.2890    -0.1060 h1         1 5D2       0.057200
     54 H20         -0.9610    -1.7340     0.9110 hn         1 5D2       0.310500
     55 H21         -2.4650    -0.0820     0.9310 hc         1 5D2       0.052700
     56 H22         -4.0640    -1.5950    -1.1790 hc         1 5D2       0.064700
     57 H23         -3.5410    -2.2300     0.3760 hc         1 5D2       0.064700
     58 H24         -5.9040    -1.5220     0.4060 h1         1 5D2       0.050450
     59 H25         -4.9390    -0.6610     1.5950 h1         1 5D2       0.050450
     60 H26         -2.4640     1.8000    -0.6690 hc         1 5D2       0.064700
     61 H27         -3.4170     0.8610    -1.8110 hc         1 5D2       0.064700
     62 H28         -4.2670     1.7650     0.9780 h1         1 5D2       0.050450
     63 H29         -4.8330     2.3960    -0.5560 h1         1 5D2       0.050450
     64 H30         -9.2350    -1.3970     2.7910 hc         1 5D2       0.060367
     65 H31        -10.8000    -1.9500     2.1820 hc         1 5D2       0.060367
     66 H32         -9.3120    -2.3480     1.3130 hc         1 5D2       0.060367
     67 H33         -9.0090     3.1370    -1.3120 ha         1 5D2       0.151000
     68 H34         -6.6160     2.5910    -1.3130 ha         1 5D2       0.136000
@<TRIPOS>BOND
     1     1     2 ar  
     2     1     7 ar  
     3     1    36 1   
     4     2     3 1   
     5     2     4 ar  
     6     4     5 ar  
     7     4    37 1   
     8     5     6 ar  
     9     5    38 1   
    10     6     7 ar  
    11     6    39 1   
    12     7     8 1   
    13     8     9 1   
    14     8    11 1   
    15     9    10 1   
    16     9    40 1   
    17     9    41 1   
    18    10    13 1   
    19    10    42 1   
    20    10    43 1   
    21    11    12 1   
    22    11    44 1   
    23    11    45 1   
    24    12    13 1   
    25    12    46 1   
    26    12    47 1   
    27    13    14 1   
    28    14    15 1   
    29    14    48 1   
    30    14    49 1   
    31    15    16 1   
    32    15    50 1   
    33    15    51 1   
    34    16    17 1   
    35    16    52 1   
    36    16    53 1   
    37    17    18 1   
    38    17    54 1   
    39    18    19 2   
    40    18    20 1   
    41    20    21 1   
    42    20    23 1   
    43    20    55 1   
    44    21    22 1   
    45    21    56 1   
    46    21    57 1   
    47    22    25 1   
    48    22    58 1   
    49    22    59 1   
    50    23    24 1   
    51    23    60 1   
    52    23    61 1   
    53    24    25 1   
    54    24    62 1   
    55    24    63 1   
    56    25    26 1   
    57    26    27 2   
    58    26    35 1   
    59    27    28 1   
    60    28    29 1   
    61    28    33 1   
    62    29    30 1   
    63    29    31 2   
    64    30    64 1   
    65    30    65 1   
    66    30    66 1   
    67    31    32 1   
    68    32    33 2   
    69    33    34 1   
    70    34    35 2   
    71    34    67 1   
    72    35    68 1   
@<TRIPOS>SUBSTRUCTURE
     1 5D2         1 TEMP              0 ****  ****    0 ROOT
