@<TRIPOS>MOLECULE
5D3
   47    51     1     0     0
SMALL
No Charge or Current Charge


@<TRIPOS>ATOM
      1 CAA        116.7420   137.3240   112.8030 ca         1 5D3      -0.268500
      2 CAB        116.9270   137.4800   114.1920 ca         1 5D3      -0.004000
      3 CAC        117.7090   138.5380   114.6830 ca         1 5D3      -0.135000
      4 CAD        118.3090   139.4520   113.7970 ca         1 5D3      -0.031300
      5 CAE        118.1330   139.2870   112.4100 ca         1 5D3      -0.135000
      6 CAF        117.3550   138.2270   111.9120 ca         1 5D3      -0.004000
      7 CAG        119.1240   140.6180   114.3410 c3         1 5D3      -0.041100
      8 CAH        118.2280   141.7430   114.8940 c3         1 5D3      -0.086100
      9 CAK        114.3330   136.8520   111.3220 cc         1 5D3      -0.225500
     10 CAM        113.6890   137.9600   111.7560 cd         1 5D3       0.503500
     11 CAR        113.1880   139.7380   112.9310 cc         1 5D3       0.717900
     12 CAS        112.1830   140.0730   111.9520 cc         1 5D3      -0.337000
     13 CAT        111.9650   139.2980   110.8480 cd         1 5D3       0.017200
     14 CAV        110.3920   140.9200   110.3880 cc         1 5D3      -0.141400
     15 CAW        110.9680   139.7450   109.9490 cd         1 5D3      -0.171200
     16 CAY        114.5000   140.7050   114.8550 c3         1 5D3       0.306100
     17 CAZ        114.1080   140.1800   116.2020 cc         1 5D3      -0.270300
     18 CBA        113.6380   140.8810   117.2860 cd         1 5D3      -0.121000
     19 CBB        113.3750   140.0620   118.4160 cd         1 5D3      -0.142000
     20 CBC        113.6420   138.7340   118.2030 cc         1 5D3      -0.237000
     21 NAN        112.7800   138.1820   110.7710 na         1 5D3       0.071900
     22 NAO        112.8380   137.2880   109.7480 nd         1 5D3      -0.215400
     23 NAP        113.8050   136.4540   110.1030 nc         1 5D3      -0.105600
     24 NAQ        113.9790   138.6790   112.9060 nd         1 5D3      -0.765000
     25 NAX        113.3460   140.6070   113.9560 nu         1 5D3      -0.912100
     26 OAJ        116.4170   135.2830   111.1270 o          1 5D3      -0.526500
     27 OAL        115.0860   135.3010   113.3050 o          1 5D3      -0.526500
     28 SAI        115.6710   136.0170   112.1610 sy         1 5D3       1.106600
     29 SAU        111.1040   141.4620   111.9220 ss         1 5D3       0.154400
     30 SBD        114.2340   138.4620   116.5670 ss         1 5D3       0.268000
     31 H1         116.4590   136.7950   114.8970 ha         1 5D3       0.136000
     32 H2         117.8370   138.6560   115.7560 ha         1 5D3       0.115500
     33 H3         118.5890   139.9870   111.7150 ha         1 5D3       0.115500
     34 H4         117.2160   138.1230   110.8360 ha         1 5D3       0.136000
     35 H11        109.6070   141.5110   109.9300 h4         1 5D3       0.233000
     36 H13        110.6940   139.2300   109.0310 ha         1 5D3       0.241000
     37 H14        114.8180   141.7540   114.9530 h1         1 5D3       0.076700
     38 H15        115.3640   140.1430   114.4740 h1         1 5D3       0.076700
     39 H17        113.4840   141.9560   117.2810 ha         1 5D3       0.127000
     40 H18        112.9990   140.4510   119.3590 ha         1 5D3       0.135000
     41 H20        113.5360   137.8940   118.8780 h4         1 5D3       0.155000
     42 H22        112.7010   141.3870   113.9300 hn         1 5D3       0.503000
     43 H5         119.7910   140.2680   115.1380 hc         1 5D3       0.051700
     44 H6         119.7720   141.0310   113.5590 hc         1 5D3       0.051700
     45 H7         118.8410   142.5720   115.2670 hc         1 5D3       0.034700
     46 H8         117.5660   142.1300   114.1090 hc         1 5D3       0.034700
     47 H9         117.6070   141.3750   115.7200 hc         1 5D3       0.034700
@<TRIPOS>BOND
     1     1     2 ar  
     2     1     6 ar  
     3     1    28 1   
     4     2     3 ar  
     5     2    31 1   
     6     3     4 ar  
     7     3    32 1   
     8     4     5 ar  
     9     4     7 1   
    10     5     6 ar  
    11     5    33 1   
    12     6    34 1   
    13     7     8 1   
    14     7    43 1   
    15     7    44 1   
    16     8    45 1   
    17     8    46 1   
    18     8    47 1   
    19     9    10 2   
    20     9    23 1   
    21     9    28 1   
    22    10    21 1   
    23    10    24 1   
    24    11    12 1   
    25    11    24 2   
    26    11    25 1   
    27    12    13 2   
    28    12    29 1   
    29    13    15 1   
    30    13    21 1   
    31    14    15 2   
    32    14    29 1   
    33    14    35 1   
    34    15    36 1   
    35    16    17 1   
    36    16    25 1   
    37    16    37 1   
    38    16    38 1   
    39    17    18 2   
    40    17    30 1   
    41    18    19 1   
    42    18    39 1   
    43    19    20 2   
    44    19    40 1   
    45    20    30 1   
    46    20    41 1   
    47    21    22 1   
    48    22    23 2   
    49    25    42 1   
    50    26    28 2   
    51    27    28 2   
@<TRIPOS>SUBSTRUCTURE
     1 5D3         1 TEMP              0 ****  ****    0 ROOT
