@<TRIPOS>MOLECULE
5D3
   47    51     1     0     0
SMALL
abcg2


@<TRIPOS>ATOM
      1 CAA        116.7120   137.3710   112.9310 ca         1 5D3      -0.268500
      2 CAB        116.8710   137.6050   114.2910 ca         1 5D3      -0.004000
      3 CAC        117.6510   138.6740   114.7070 ca         1 5D3      -0.135000
      4 CAD        118.2700   139.5180   113.7810 ca         1 5D3      -0.031300
      5 CAE        118.0990   139.2540   112.4190 ca         1 5D3      -0.135000
      6 CAF        117.3250   138.1870   111.9860 ca         1 5D3      -0.004000
      7 CAG        119.1050   140.6870   114.2390 c3         1 5D3      -0.041100
      8 CAH        118.3680   141.6400   115.1860 c3         1 5D3      -0.086100
      9 CAK        114.3820   136.8810   111.5460 cc         1 5D3      -0.225500
     10 CAM        113.7580   138.0890   111.8750 cd         1 5D3       0.503500
     11 CAR        113.1860   140.0860   112.8370 cc         1 5D3       0.717900
     12 CAS        112.1370   140.2330   111.8640 cc         1 5D3      -0.337000
     13 CAT        111.9440   139.2730   110.8810 cd         1 5D3       0.017200
     14 CAV        110.2890   140.7390   110.3060 cc         1 5D3      -0.141400
     15 CAW        110.8870   139.5550   109.9840 cd         1 5D3      -0.171200
     16 CAY        114.4910   140.9170   114.7470 c3         1 5D3       0.306100
     17 CAZ        114.0940   140.1820   115.9910 cc         1 5D3      -0.270300
     18 CBA        113.9430   140.7130   117.2420 cd         1 5D3      -0.121000
     19 CBB        113.5530   139.7540   118.2200 cd         1 5D3      -0.142000
     20 CBC        113.4100   138.5030   117.6920 cc         1 5D3      -0.237000
     21 NAN        112.7930   138.1920   110.9010 na         1 5D3       0.071900
     22 NAO        112.8230   137.1320   110.0430 nd         1 5D3      -0.215400
     23 NAP        113.7870   136.3590   110.4490 nc         1 5D3      -0.105600
     24 NAQ        113.9560   139.0020   112.8270 nd         1 5D3      -0.765000
     25 NAX        113.4240   141.0300   113.7570 nu         1 5D3      -0.912100
     26 OAJ        116.3680   135.2300   111.4200 o          1 5D3      -0.526500
     27 OAL        115.1290   135.3910   113.5640 o          1 5D3      -0.526500
     28 SAI        115.6720   136.0510   112.3910 sy         1 5D3       1.106600
     29 SAU        110.9900   141.5140   111.6740 ss         1 5D3       0.154400
     30 SBD        113.7560   138.4810   116.0050 ss         1 5D3       0.268000
     31 H1         116.3750   136.9710   115.0110 ha         1 5D3       0.136000
     32 H2         117.7670   138.8580   115.7670 ha         1 5D3       0.115500
     33 H3         118.5700   139.8990   111.6890 ha         1 5D3       0.115500
     34 H4         117.1890   138.0030   110.9280 ha         1 5D3       0.136000
     35 H11        109.4570   141.2090   109.8060 h4         1 5D3       0.233000
     36 H13        110.5940   138.9230   109.1600 ha         1 5D3       0.241000
     37 H14        114.7840   141.9280   115.0250 h1         1 5D3       0.076700
     38 H15        115.3420   140.4390   114.2650 h1         1 5D3       0.076700
     39 H17        114.1090   141.7610   117.4520 ha         1 5D3       0.127000
     40 H18        113.3860   139.9860   119.2620 ha         1 5D3       0.135000
     41 H20        113.1210   137.5940   118.1960 h4         1 5D3       0.155000
     42 H22        112.7820   141.8010   113.8490 hn         1 5D3       0.503000
     43 H5         120.0020   140.3050   114.7370 hc         1 5D3       0.051700
     44 H6         119.4470   141.2400   113.3620 hc         1 5D3       0.051700
     45 H7         119.0260   142.4560   115.4880 hc         1 5D3       0.034700
     46 H8         117.4920   142.0710   114.6980 hc         1 5D3       0.034700
     47 H9         118.0320   141.1280   116.0890 hc         1 5D3       0.034700
@<TRIPOS>BOND
     1     1     2 ar  
     2     1     6 ar  
     3     1    28 1   
     4     2     3 ar  
     5     2    31 1   
     6     3     4 ar  
     7     3    32 1   
     8     4     5 ar  
     9     4     7 1   
    10     5     6 ar  
    11     5    33 1   
    12     6    34 1   
    13     7     8 1   
    14     7    43 1   
    15     7    44 1   
    16     8    45 1   
    17     8    46 1   
    18     8    47 1   
    19     9    10 2   
    20     9    23 1   
    21     9    28 1   
    22    10    21 1   
    23    10    24 1   
    24    11    12 1   
    25    11    24 2   
    26    11    25 1   
    27    12    13 2   
    28    12    29 1   
    29    13    15 1   
    30    13    21 1   
    31    14    15 2   
    32    14    29 1   
    33    14    35 1   
    34    15    36 1   
    35    16    17 1   
    36    16    25 1   
    37    16    37 1   
    38    16    38 1   
    39    17    18 2   
    40    17    30 1   
    41    18    19 1   
    42    18    39 1   
    43    19    20 2   
    44    19    40 1   
    45    20    30 1   
    46    20    41 1   
    47    21    22 1   
    48    22    23 2   
    49    25    42 1   
    50    26    28 2   
    51    27    28 2   
@<TRIPOS>SUBSTRUCTURE
     1 5D3         1 TEMP              0 ****  ****    0 ROOT
