@<TRIPOS>MOLECULE
5D4
   34    33     1     0     0
SMALL
abcg2


@<TRIPOS>ATOM
      1 O1           5.8350    -1.3390    -0.0240 o          1 5D4      -0.610100
      2 C8           5.6110    -0.1340     0.0010 c          1 5D4       0.598100
      3 C9           6.7260     0.8830     0.0130 c3         1 5D4      -0.179100
      4 N1           4.3690     0.3670     0.0170 ns         1 5D4      -0.510900
      5 C7           3.1800    -0.4600     0.0070 c3         1 5D4       0.105000
      6 C6           1.9270     0.4020     0.0180 c3         1 5D4      -0.095400
      7 C5           0.6570    -0.4390     0.0070 c3         1 5D4      -0.073400
      8 C4          -0.6080     0.4100     0.0160 c3         1 5D4      -0.073400
      9 C3          -1.8770    -0.4320     0.0030 c3         1 5D4      -0.095400
     10 C2          -3.1320     0.4270     0.0120 c3         1 5D4       0.105000
     11 N           -4.3180    -0.4040    -0.0020 ns         1 5D4      -0.510900
     12 C1          -5.5620     0.0920     0.0210 c          1 5D4       0.598100
     13 O           -5.7910     1.2960     0.0570 o          1 5D4      -0.610100
     14 C           -6.6730    -0.9290     0.0000 c3         1 5D4      -0.179100
     15 H91C         7.3450     0.7550    -0.8750 hc         1 5D4       0.059033
     16 H92C         6.3750     1.9130     0.0410 hc         1 5D4       0.059033
     17 H93C         7.3640     0.7130     0.8800 hc         1 5D4       0.059033
     18 H1           4.2490     1.3670     0.0370 hn         1 5D4       0.311500
     19 H71C         3.1790    -1.1010    -0.8800 h1         1 5D4       0.051200
     20 H72C         3.1790    -1.1240     0.8760 h1         1 5D4       0.051200
     21 H61C         1.9330     1.0430     0.9060 hc         1 5D4       0.043200
     22 H62C         1.9330     1.0670    -0.8510 hc         1 5D4       0.043200
     23 H51C         0.6550    -1.0850    -0.8770 hc         1 5D4       0.043700
     24 H52C         0.6530    -1.1070     0.8750 hc         1 5D4       0.043700
     25 H41C        -0.6070     1.0550     0.9010 hc         1 5D4       0.043700
     26 H42C        -0.6040     1.0790    -0.8510 hc         1 5D4       0.043700
     27 H31C        -1.8800    -1.0740    -0.8840 hc         1 5D4       0.043200
     28 H32C        -1.8830    -1.0970     0.8730 hc         1 5D4       0.043200
     29 H21C        -3.1350     1.0670     0.9000 h1         1 5D4       0.051200
     30 H22C        -3.1300     1.0920    -0.8570 h1         1 5D4       0.051200
     31 H           -4.1950    -1.4030    -0.0360 hn         1 5D4       0.311500
     32 HC1         -6.3190    -1.9580    -0.0320 hc         1 5D4       0.059033
     33 HC2         -7.2950    -0.8070     0.8870 hc         1 5D4       0.059033
     34 HC3         -7.3090    -0.7570    -0.8680 hc         1 5D4       0.059033
@<TRIPOS>BOND
     1     1     2 2   
     2     2     3 1   
     3     2     4 1   
     4     3    15 1   
     5     3    16 1   
     6     3    17 1   
     7     4     5 1   
     8     4    18 1   
     9     5     6 1   
    10     5    19 1   
    11     5    20 1   
    12     6     7 1   
    13     6    21 1   
    14     6    22 1   
    15     7     8 1   
    16     7    23 1   
    17     7    24 1   
    18     8     9 1   
    19     8    25 1   
    20     8    26 1   
    21     9    10 1   
    22     9    27 1   
    23     9    28 1   
    24    10    11 1   
    25    10    29 1   
    26    10    30 1   
    27    11    12 1   
    28    11    31 1   
    29    12    13 2   
    30    12    14 1   
    31    14    32 1   
    32    14    33 1   
    33    14    34 1   
@<TRIPOS>SUBSTRUCTURE
     1 5D4         1 TEMP              0 ****  ****    0 ROOT
