@<TRIPOS>MOLECULE
5D4
   34    33     1     0     0
SMALL
No Charge or Current Charge


@<TRIPOS>ATOM
      1 O1           5.9530    -1.3560     0.2540 o          1 5D4      -0.610100
      2 C8           5.7230    -0.1640     0.1160 c          1 5D4       0.598100
      3 C9           6.8280     0.8800     0.0160 c3         1 5D4      -0.179100
      4 N1           4.4450     0.3380     0.0390 ns         1 5D4      -0.510900
      5 C7           3.2330    -0.4780     0.1120 c3         1 5D4       0.105000
      6 C6           1.9620     0.3840    -0.0060 c3         1 5D4      -0.095400
      7 C5           0.6640    -0.4490     0.0680 c3         1 5D4      -0.073400
      8 C4          -0.6130     0.4120    -0.0500 c3         1 5D4      -0.073400
      9 C3          -1.9120    -0.4210     0.0240 c3         1 5D4      -0.095400
     10 C2          -3.1830     0.4410    -0.0940 c3         1 5D4       0.105000
     11 N           -4.3950    -0.3740    -0.0210 ns         1 5D4      -0.510900
     12 C1          -5.6730     0.1270    -0.0970 c          1 5D4       0.598100
     13 O           -5.9020     1.3200    -0.2340 o          1 5D4      -0.610100
     14 C           -6.7780    -0.9160     0.0040 c3         1 5D4      -0.179100
     15 H91C         6.6960     1.4520    -0.9100 hc         1 5D4       0.059033
     16 H92C         6.6690     1.6430     0.7860 hc         1 5D4       0.059033
     17 H93C         7.8300     0.4420     0.0810 hc         1 5D4       0.059033
     18 H1           4.3530     1.3400    -0.0760 hn         1 5D4       0.311500
     19 H71C         3.2540    -1.2160    -0.7010 h1         1 5D4       0.051200
     20 H72C         3.2260    -1.0170     1.0690 h1         1 5D4       0.051200
     21 H61C         1.9580     1.1310     0.7980 hc         1 5D4       0.043200
     22 H62C         1.9860     0.9320    -0.9560 hc         1 5D4       0.043200
     23 H51C         0.6700    -1.1970    -0.7360 hc         1 5D4       0.043700
     24 H52C         0.6420    -0.9990     1.0170 hc         1 5D4       0.043700
     25 H41C        -0.6190     1.1600     0.7530 hc         1 5D4       0.043700
     26 H42C        -0.5920     0.9620    -0.9990 hc         1 5D4       0.043700
     27 H31C        -1.9080    -1.1670    -0.7810 hc         1 5D4       0.043200
     28 H32C        -1.9360    -0.9690     0.9740 hc         1 5D4       0.043200
     29 H21C        -3.2040     1.1800     0.7180 h1         1 5D4       0.051200
     30 H22C        -3.1760     0.9800    -1.0510 h1         1 5D4       0.051200
     31 H           -4.3030    -1.3770     0.0930 hn         1 5D4       0.311500
     32 HC1         -6.6190    -1.6790    -0.7670 hc         1 5D4       0.059033
     33 HC2         -6.6450    -1.4890     0.9290 hc         1 5D4       0.059033
     34 HC3         -7.7800    -0.4780    -0.0610 hc         1 5D4       0.059033
@<TRIPOS>BOND
     1     1     2 2   
     2     2     3 1   
     3     2     4 1   
     4     3    15 1   
     5     3    16 1   
     6     3    17 1   
     7     4     5 1   
     8     4    18 1   
     9     5     6 1   
    10     5    19 1   
    11     5    20 1   
    12     6     7 1   
    13     6    21 1   
    14     6    22 1   
    15     7     8 1   
    16     7    23 1   
    17     7    24 1   
    18     8     9 1   
    19     8    25 1   
    20     8    26 1   
    21     9    10 1   
    22     9    27 1   
    23     9    28 1   
    24    10    11 1   
    25    10    29 1   
    26    10    30 1   
    27    11    12 1   
    28    11    31 1   
    29    12    13 2   
    30    12    14 1   
    31    14    32 1   
    32    14    33 1   
    33    14    34 1   
@<TRIPOS>SUBSTRUCTURE
     1 5D4         1 TEMP              0 ****  ****    0 ROOT
