@<TRIPOS>MOLECULE
5D5
   78    81     1     0     0
SMALL
bcc


@<TRIPOS>ATOM
      1 C1          -6.6060     1.9860     0.0450 c6         1 5D5      -0.066400
      2 C2          -6.5060     2.1710    -1.4620 c6         1 5D5      -0.111400
      3 C3          -7.2930     1.0780    -2.1710 c6         1 5D5       0.148100
      4 C4          -6.8000    -0.2920    -1.7440 c6         1 5D5      -0.072400
      5 C5          -6.8570    -0.4770    -0.2230 c6         1 5D5      -0.045700
      6 C6          -6.3690    -1.8600     0.1910 c6         1 5D5      -0.106400
      7 C7          -4.8650    -2.0520     0.0180 c6         1 5D5       0.151100
      8 C8          -4.0560    -0.9610     0.7210 c6         1 5D5      -0.036700
      9 C9          -4.5760     0.4400     0.3110 c6         1 5D5      -0.047700
     10 C10         -6.0970     0.6240     0.5480 c6         1 5D5      -0.033000
     11 C11         -3.7370     1.5520     0.9430 c6         1 5D5      -0.070400
     12 O3          -7.1960     1.1610    -3.5800 oh         1 5D5      -0.597800
     13 O25          5.0690    -1.4470     0.4900 o          1 5D5      -0.611100
     14 C24          4.6910    -0.2900     0.3570 c          1 5D5       0.660100
     15 N26          5.2480     0.5710    -0.5140 ns         1 5D5      -0.562900
     16 C25          6.3850     0.2690    -1.3510 c3         1 5D5       0.135000
     17 C26          7.6810     0.7960    -0.7500 c3         1 5D5      -0.270600
     18 S27          9.1000     0.5240    -1.8260 s6         1 5D5       1.212800
     19 O30          9.1910    -0.9400    -2.0010 o          1 5D5      -0.695533
     20 O28          8.7900     1.2380    -3.0810 o          1 5D5      -0.695533
     21 O29         10.2530     1.0970    -1.1050 o          1 5D5      -0.695533
     22 C23          3.5160     0.2710     1.1280 c3         1 5D5      -0.164400
     23 C20          0.9370     0.2850     1.2630 c3         1 5D5      -0.049700
     24 C21          0.9140     1.8110     1.3270 c3         1 5D5      -0.087100
     25 C17         -0.3020    -0.3110     0.5760 c5         1 5D5      -0.053700
     26 C13         -1.7120     0.0510     1.1010 c5         1 5D5      -0.039000
     27 C18         -1.7600    -0.0970     2.6250 c3         1 5D5      -0.077100
     28 C14         -2.5620    -1.0240     0.3860 c5         1 5D5      -0.056700
     29 C15         -1.7710    -2.3130     0.6130 c5         1 5D5      -0.062400
     30 C16         -0.2990    -1.8590     0.5850 c5         1 5D5      -0.081400
     31 C12         -2.2440     1.4150     0.6690 c6         1 5D5      -0.064400
     32 C19         -6.4430     0.5530     2.0400 c3         1 5D5      -0.085100
     33 O7          -4.4880    -3.3140     0.5400 oh         1 5D5      -0.596800
     34 H1          -6.0960     2.8020     0.5610 hc         1 5D5       0.039200
     35 H2          -7.6600     2.0760     0.3370 hc         1 5D5       0.039200
     36 H3          -6.8980     3.1550    -1.7400 hc         1 5D5       0.046700
     37 H4          -5.4620     2.1440    -1.7910 hc         1 5D5       0.046700
     38 H5          -8.3470     1.1720    -1.8590 h1         1 5D5       0.021700
     39 H6          -7.4130    -1.0680    -2.2130 hc         1 5D5       0.053700
     40 H7          -5.7820    -0.4350    -2.1210 hc         1 5D5       0.053700
     41 H8          -7.9140    -0.3990     0.0640 hc         1 5D5       0.042700
     42 H9          -6.6200    -2.0420     1.2400 hc         1 5D5       0.043700
     43 H10         -6.8970    -2.6260    -0.3890 hc         1 5D5       0.043700
     44 H11         -4.6190    -2.0070    -1.0560 h1         1 5D5       0.030700
     45 H12         -4.1860    -1.1010     1.8020 hc         1 5D5       0.062700
     46 H13         -4.4050     0.5150    -0.7710 hc         1 5D5       0.048700
     47 H14         -4.0630     2.5190     0.5560 hc         1 5D5       0.036700
     48 H15         -3.9120     1.5900     2.0220 hc         1 5D5       0.036700
     49 H16         -7.5040     2.0330    -3.8490 ho         1 5D5       0.401000
     50 H17          4.9020     1.5160    -0.5360 hn         1 5D5       0.295500
     51 H18          6.4420    -0.8080    -1.4910 h1         1 5D5       0.066700
     52 H19          6.2190     0.7200    -2.3300 h1         1 5D5       0.066700
     53 H20          7.6130     1.8710    -0.5710 h1         1 5D5       0.069700
     54 H21          7.8920     0.3080     0.2040 h1         1 5D5       0.069700
     55 H22          3.5960    -0.0650     2.1650 hc         1 5D5       0.051200
     56 H23          3.5650     1.3600     1.1380 hc         1 5D5       0.051200
     57 H24          2.1310     0.1090    -0.5190 hc         1 5D5       0.050200
     58 H25          2.2020    -1.3010     0.5190 hc         1 5D5       0.050200
     59 H26          0.9820    -0.0980     2.2910 hc         1 5D5       0.046700
     60 H27          1.8350     2.2120     1.7520 hc         1 5D5       0.030700
     61 H28          0.7910     2.2460     0.3330 hc         1 5D5       0.030700
     62 H29          0.1040     2.1800     1.9530 hc         1 5D5       0.030700
     63 H30         -0.2680     0.0210    -0.4730 hc         1 5D5       0.043700
     64 H31         -1.4270    -1.0820     2.9550 hc         1 5D5       0.031367
     65 H32         -1.1140     0.6380     3.1070 hc         1 5D5       0.031367
     66 H33         -2.7630     0.0520     3.0260 hc         1 5D5       0.031367
     67 H34         -2.4840    -0.7920    -0.6890 hc         1 5D5       0.038700
     68 H35         -2.0260    -2.7600     1.5750 hc         1 5D5       0.046700
     69 H36         -1.9800    -3.0670    -0.1450 hc         1 5D5       0.046700
     70 H37          0.2210    -2.2510    -0.2900 hc         1 5D5       0.045700
     71 H38          0.2450    -2.2370     1.4560 hc         1 5D5       0.045700
     72 H39         -2.0580     1.5380    -0.4040 hc         1 5D5       0.041700
     73 H40         -1.7250     2.2360     1.1660 hc         1 5D5       0.041700
     74 H41         -7.5270     0.5460     2.1750 hc         1 5D5       0.033700
     75 H42         -6.0490    -0.3320     2.5390 hc         1 5D5       0.033700
     76 H43         -6.0590     1.4250     2.5730 hc         1 5D5       0.033700
     77 H44         -4.9730    -3.9880     0.0530 ho         1 5D5       0.397000
     78 C22          2.1920    -0.2090     0.5280 c3         1 5D5      -0.071400
@<TRIPOS>BOND
     1     1     2 1   
     2     1    10 1   
     3     1    34 1   
     4     1    35 1   
     5     2     3 1   
     6     2    36 1   
     7     2    37 1   
     8     3     4 1   
     9     3    12 1   
    10     3    38 1   
    11     4     5 1   
    12     4    39 1   
    13     4    40 1   
    14     5     6 1   
    15     5    10 1   
    16     5    41 1   
    17     6     7 1   
    18     6    42 1   
    19     6    43 1   
    20     7     8 1   
    21     7    33 1   
    22     7    44 1   
    23     8     9 1   
    24     8    28 1   
    25     8    45 1   
    26     9    10 1   
    27     9    11 1   
    28     9    46 1   
    29    10    32 1   
    30    11    31 1   
    31    11    47 1   
    32    11    48 1   
    33    12    49 1   
    34    13    14 2   
    35    14    15 1   
    36    14    22 1   
    37    15    16 1   
    38    15    50 1   
    39    16    17 1   
    40    16    51 1   
    41    16    52 1   
    42    17    18 1   
    43    17    53 1   
    44    17    54 1   
    45    18    19 1   
    46    18    20 1   
    47    18    21 1   
    48    22    55 1   
    49    22    56 1   
    50    22    78 1   
    51    23    24 1   
    52    23    25 1   
    53    23    59 1   
    54    23    78 1   
    55    24    60 1   
    56    24    61 1   
    57    24    62 1   
    58    25    26 1   
    59    25    30 1   
    60    25    63 1   
    61    26    27 1   
    62    26    28 1   
    63    26    31 1   
    64    27    64 1   
    65    27    65 1   
    66    27    66 1   
    67    28    29 1   
    68    28    67 1   
    69    29    30 1   
    70    29    68 1   
    71    29    69 1   
    72    30    70 1   
    73    30    71 1   
    74    31    72 1   
    75    31    73 1   
    76    32    74 1   
    77    32    75 1   
    78    32    76 1   
    79    33    77 1   
    80    57    78 1   
    81    58    78 1   
@<TRIPOS>SUBSTRUCTURE
     1 5D5         1 TEMP              0 ****  ****    0 ROOT
