@<TRIPOS>MOLECULE
5D5
   78    81     1     0     0
SMALL
No Charge or Current Charge


@<TRIPOS>ATOM
      1 C1          -6.8740     1.8900     0.1740 c6         1 5D5      -0.066400
      2 C2          -6.7950     2.1500    -1.3510 c6         1 5D5      -0.111400
      3 C3          -7.5060     1.0220    -2.1310 c6         1 5D5       0.171300
      4 C4          -6.9140    -0.3570    -1.7570 c6         1 5D5      -0.072400
      5 C5          -6.9610    -0.6160    -0.2140 c6         1 5D5      -0.045700
      6 C6          -6.3860    -2.0160     0.1280 c6         1 5D5      -0.106400
      7 C7          -4.8520    -2.1110    -0.0780 c6         1 5D5       0.174300
      8 C8          -4.0790    -0.9850     0.6960 c6         1 5D5      -0.036700
      9 C9          -4.6820     0.4400     0.3750 c6         1 5D5      -0.047700
     10 C10         -6.2520     0.5160     0.6200 c6         1 5D5      -0.033000
     11 C11         -3.8810     1.5640     1.1140 c6         1 5D5      -0.070400
     12 O3          -7.3800     1.2450    -3.5370 oh         1 5D5      -0.660000
     13 O25          5.0910    -1.2780     0.3760 o          1 5D5      -0.611100
     14 C24          4.7990    -0.1090     0.1650 c          1 5D5       0.593100
     15 N26          5.5170     0.6900    -0.6970 ns         1 5D5      -0.495900
     16 C25          6.7040     0.2680    -1.4380 c3         1 5D5       0.135000
     17 C26          7.9620     0.4120    -0.5700 c3         1 5D5      -0.381400
     18 S27          9.4530    -0.0650    -1.4610 s6         1 5D5       1.323600
     19 O30          9.2130    -1.4680    -1.8230 o          1 5D5      -0.695533
     20 O28          9.4920     0.8640    -2.5990 o          1 5D5      -0.695533
     21 O29         10.5200     0.1370    -0.4710 o          1 5D5      -0.695533
     22 C23          3.6240     0.5870     0.8630 c3         1 5D5      -0.164400
     23 C20          0.9900     0.5620     1.0750 c3         1 5D5      -0.049700
     24 C21          0.8720     2.1080     1.1200 c3         1 5D5      -0.087100
     25 C17         -0.3150    -0.1480     0.4810 c5         1 5D5      -0.053700
     26 C13         -1.7270     0.1320     1.1390 c5         1 5D5      -0.039000
     27 C18         -1.7000    -0.0450     2.6980 c3         1 5D5      -0.077100
     28 C14         -2.5440    -0.9580     0.3580 c5         1 5D5      -0.056700
     29 C15         -1.6990    -2.2340     0.6140 c5         1 5D5      -0.062400
     30 C16         -0.2300    -1.7180     0.5440 c5         1 5D5      -0.081400
     31 C12         -2.3610     1.5180     0.8040 c6         1 5D5      -0.064400
     32 C19         -6.5950     0.3510     2.1440 c3         1 5D5      -0.085100
     33 O7          -4.4490    -3.4160     0.3530 oh         1 5D5      -0.659000
     34 H1          -6.4210     2.7280     0.7170 hc         1 5D5       0.039200
     35 H2          -7.9340     1.9130     0.4640 hc         1 5D5       0.039200
     36 H3          -7.2730     3.1130    -1.5780 hc         1 5D5       0.046700
     37 H4          -5.7500     2.2430    -1.6730 hc         1 5D5       0.046700
     38 H5          -8.5710     1.0260    -1.8520 h1         1 5D5       0.021700
     39 H6          -7.4830    -1.1410    -2.2750 hc         1 5D5       0.053700
     40 H7          -5.8900    -0.4270    -2.1420 hc         1 5D5       0.053700
     41 H8          -8.0240    -0.6280     0.0680 hc         1 5D5       0.042700
     42 H9          -6.6370    -2.2770     1.1640 hc         1 5D5       0.043700
     43 H10         -6.8860    -2.7730    -0.4910 hc         1 5D5       0.043700
     44 H11         -4.6350    -2.0000    -1.1500 h1         1 5D5       0.030700
     45 H12         -4.1850    -1.1890     1.7680 hc         1 5D5       0.062700
     46 H13         -4.5040     0.6110    -0.6940 hc         1 5D5       0.048700
     47 H14         -4.2420     2.5530     0.8090 hc         1 5D5       0.036700
     48 H15         -4.0380     1.5070     2.1970 hc         1 5D5       0.036700
     49 H16         -7.8020     2.1120    -3.7210 ho         1 5D5       0.440000
     50 H17          5.2010     1.6470    -0.8010 hn         1 5D5       0.295500
     51 H18          6.5780    -0.7760    -1.7600 h1         1 5D5       0.066700
     52 H19          6.7920     0.8920    -2.3380 h1         1 5D5       0.066700
     53 H20          8.1010     1.4520    -0.2580 h1         1 5D5       0.069700
     54 H21          7.9010    -0.2350     0.3110 h1         1 5D5       0.069700
     55 H22          3.6480     0.3230     1.9270 hc         1 5D5       0.051200
     56 H23          3.7250     1.6710     0.7430 hc         1 5D5       0.051200
     57 H24          2.1790     0.4930    -0.7620 hc         1 5D5       0.050200
     58 H25          2.2900    -0.9620     0.2100 hc         1 5D5       0.050200
     59 H26          1.1890     0.2560     2.1250 hc         1 5D5       0.046700
     60 H27          1.8250     2.5890     1.3560 hc         1 5D5       0.030700
     61 H28          0.5180     2.5060     0.1610 hc         1 5D5       0.030700
     62 H29          0.1850     2.4180     1.9130 hc         1 5D5       0.030700
     63 H30         -0.3500     0.1600    -0.5720 hc         1 5D5       0.043700
     64 H31         -1.1840    -0.9580     3.0140 hc         1 5D5       0.031367
     65 H32         -1.1770     0.7900     3.1780 hc         1 5D5       0.031367
     66 H33         -2.7040    -0.0840     3.1330 hc         1 5D5       0.031367
     67 H34         -2.5200    -0.7420    -0.7180 hc         1 5D5       0.038700
     68 H35         -1.9210    -2.6830     1.5880 hc         1 5D5       0.046700
     69 H36         -1.8800    -3.0060    -0.1420 hc         1 5D5       0.046700
     70 H37          0.2870    -2.1190    -0.3350 hc         1 5D5       0.045700
     71 H38          0.3350    -2.0600     1.4190 hc         1 5D5       0.045700
     72 H39         -2.2060     1.7490    -0.2590 hc         1 5D5       0.041700
     73 H40         -1.8810     2.3260     1.3640 hc         1 5D5       0.041700
     74 H41         -7.6790     0.2860     2.2990 hc         1 5D5       0.033700
     75 H42         -6.1570    -0.5460     2.5920 hc         1 5D5       0.033700
     76 H43         -6.2470     1.2070     2.7330 hc         1 5D5       0.033700
     77 H44         -4.9510    -4.0580    -0.1930 ho         1 5D5       0.436000
     78 C22          2.2610     0.1320     0.2710 c3         1 5D5      -0.071400
@<TRIPOS>BOND
     1     1     2 1   
     2     1    10 1   
     3     1    34 1   
     4     1    35 1   
     5     2     3 1   
     6     2    36 1   
     7     2    37 1   
     8     3     4 1   
     9     3    12 1   
    10     3    38 1   
    11     4     5 1   
    12     4    39 1   
    13     4    40 1   
    14     5     6 1   
    15     5    10 1   
    16     5    41 1   
    17     6     7 1   
    18     6    42 1   
    19     6    43 1   
    20     7     8 1   
    21     7    33 1   
    22     7    44 1   
    23     8     9 1   
    24     8    28 1   
    25     8    45 1   
    26     9    10 1   
    27     9    11 1   
    28     9    46 1   
    29    10    32 1   
    30    11    31 1   
    31    11    47 1   
    32    11    48 1   
    33    12    49 1   
    34    13    14 2   
    35    14    15 1   
    36    14    22 1   
    37    15    16 1   
    38    15    50 1   
    39    16    17 1   
    40    16    51 1   
    41    16    52 1   
    42    17    18 1   
    43    17    53 1   
    44    17    54 1   
    45    18    19 1   
    46    18    20 1   
    47    18    21 1   
    48    22    55 1   
    49    22    56 1   
    50    22    78 1   
    51    23    24 1   
    52    23    25 1   
    53    23    59 1   
    54    23    78 1   
    55    24    60 1   
    56    24    61 1   
    57    24    62 1   
    58    25    26 1   
    59    25    30 1   
    60    25    63 1   
    61    26    27 1   
    62    26    28 1   
    63    26    31 1   
    64    27    64 1   
    65    27    65 1   
    66    27    66 1   
    67    28    29 1   
    68    28    67 1   
    69    29    30 1   
    70    29    68 1   
    71    29    69 1   
    72    30    70 1   
    73    30    71 1   
    74    31    72 1   
    75    31    73 1   
    76    32    74 1   
    77    32    75 1   
    78    32    76 1   
    79    33    77 1   
    80    57    78 1   
    81    58    78 1   
@<TRIPOS>SUBSTRUCTURE
     1 5D5         1 TEMP              0 ****  ****    0 ROOT
