@<TRIPOS>MOLECULE
5D6
   74    76     1     0     0
SMALL
No Charge or Current Charge


@<TRIPOS>ATOM
      1 O3          -3.6540    -1.5330    -1.0370 os         1 5D6      -0.354000
      2 O5           2.5740    -3.0010     0.2860 o          1 5D6      -0.604100
      3 C9           2.2280    -1.8300     0.2100 c          1 5D6       0.604300
      4 C10          3.2190    -0.6910     0.1010 ce         1 5D6      -0.185400
      5 C20          2.6630     0.7210    -0.1060 c3         1 5D6      -0.054900
      6 C11          4.5670    -0.9520     0.1100 cf         1 5D6      -0.093200
      7 C12          5.7330    -0.0450     0.0530 ca         1 5D6      -0.119800
      8 C17          6.8960    -0.4660    -0.6170 ca         1 5D6      -0.045500
      9 C16          8.0290     0.3650    -0.6730 ca         1 5D6      -0.202000
     10 C15          8.0290     1.6280    -0.0500 ca         1 5D6       0.346000
     11 N2           9.1720     2.4660    -0.1060 nh         1 5D6      -0.836400
     12 C19          9.0560     3.9410    -0.0190 c3         1 5D6       0.225100
     13 C18         10.5360     1.9060    -0.2570 c3         1 5D6       0.225100
     14 C14          6.8710     2.0360     0.6400 ca         1 5D6      -0.202000
     15 C13          5.7360     1.2080     0.6980 ca         1 5D6      -0.045500
     16 N1           0.9010    -1.4660     0.2540 ns         1 5D6      -0.485900
     17 C8          -0.2580    -2.3850     0.3710 c6         1 5D6       0.110700
     18 C21         -0.8300    -2.8370    -1.0110 c6         1 5D6       0.166300
     19 O6           0.1370    -3.5620    -1.7890 oh         1 5D6      -0.646000
     20 C22         -1.3070    -1.6070    -1.8240 c6         1 5D6       0.147300
     21 O7          -1.7870    -2.0010    -3.1240 oh         1 5D6      -0.708000
     22 C3          -2.4010    -0.8300    -1.0560 c5         1 5D6       0.071300
     23 C5          -1.3990    -1.7440     1.2450 c6         1 5D6       0.155500
     24 N           -0.8760    -1.2710     2.5920 n3         1 5D6      -0.733600
     25 C7          -1.8880    -0.5990     3.4470 c3         1 5D6       0.151600
     26 C6          -0.1640    -2.3230     3.3650 c3         1 5D6       0.151600
     27 C4          -2.1580    -0.5900     0.4690 c5         1 5D6       0.113300
     28 O4          -3.5210    -0.5290     0.9900 os         1 5D6      -0.442000
     29 C2          -4.4500    -0.8270    -0.0750 c5         1 5D6       0.481300
     30 O2          -4.8430     0.4290    -0.6780 os         1 5D6      -0.412000
     31 C1          -5.6430     1.3460     0.1240 c3         1 5D6      -0.037700
     32 C           -7.0950     0.8320     0.4080 c          1 5D6       0.708000
     33 O1          -7.4390    -0.2740     0.0150 o          1 5D6      -0.707000
     34 O           -7.8540     1.6020     0.9870 o          1 5D6      -0.707000
     35 C23         -5.6560     2.7260    -0.5970 c3         1 5D6       0.199300
     36 O8          -6.4510     3.6540     0.1720 oh         1 5D6      -0.775000
     37 C24         -4.2160     3.2960    -0.8280 c3         1 5D6       0.152600
     38 O9          -4.2360     4.5110    -1.6020 oh         1 5D6      -0.647000
     39 H1           2.3740     1.1800     0.8470 hc         1 5D6       0.042367
     40 H2           3.3910     1.3820    -0.5900 hc         1 5D6       0.042367
     41 H3           1.7860     0.7320    -0.7650 hc         1 5D6       0.042367
     42 H4           4.8650    -2.0010     0.1920 ha         1 5D6       0.196000
     43 H5           6.9210    -1.4360    -1.1090 ha         1 5D6       0.112500
     44 H6           8.9030     0.0200    -1.2160 ha         1 5D6       0.109000
     45 H7           9.0190     4.2630     1.0300 h1         1 5D6       0.033700
     46 H8           9.9110     4.4300    -0.5040 h1         1 5D6       0.033700
     47 H9           8.1450     4.2870    -0.5270 h1         1 5D6       0.033700
     48 H10         10.7600     1.7180    -1.3150 h1         1 5D6       0.033700
     49 H11         11.2900     2.6000     0.1400 h1         1 5D6       0.033700
     50 H12         10.6300     0.9630     0.2980 h1         1 5D6       0.033700
     51 H13          6.8460     2.9910     1.1540 ha         1 5D6       0.109000
     52 H14          4.8710     1.5370     1.2660 ha         1 5D6       0.112500
     53 H15          0.7200    -0.4730     0.2950 hn         1 5D6       0.316500
     54 H16          0.0820    -3.2980     0.8790 h1         1 5D6       0.084700
     55 H17         -1.7010    -3.4840    -0.8220 h1         1 5D6       0.063700
     56 H18         -0.1380    -3.4090    -2.7220 ho         1 5D6       0.454000
     57 H19         -0.4490    -0.9310    -1.9530 h1         1 5D6       0.042700
     58 H20         -2.7650    -2.0960    -3.0290 ho         1 5D6       0.507000
     59 H21         -2.5430     0.1310    -1.5690 h1         1 5D6       0.063700
     60 H22         -2.1350    -2.5440     1.4190 h1         1 5D6       0.054700
     61 H24         -2.7500    -1.2550     3.6250 h1         1 5D6       0.034867
     62 H25         -1.4580    -0.3300     4.4220 h1         1 5D6       0.034867
     63 H26         -2.2440     0.3340     2.9910 h1         1 5D6       0.034867
     64 H27          0.7340    -2.6730     2.8410 h1         1 5D6       0.034867
     65 H28          0.1660    -1.9340     4.3370 h1         1 5D6       0.034867
     66 H29         -0.8200    -3.1850     3.5480 h1         1 5D6       0.034867
     67 H30         -1.6460     0.3670     0.6390 h1         1 5D6       0.068700
     68 H31         -5.3140    -1.4160     0.2670 h3         1 5D6       0.120700
     69 H32         -5.1650     1.4870     1.1030 h1         1 5D6       0.039700
     70 H34         -6.1210     2.5750    -1.5820 h1         1 5D6       0.037700
     71 H35         -7.1520     3.0760     0.5960 ho         1 5D6       0.569000
     72 H36         -3.7410     3.4750     0.1460 h1         1 5D6       0.011700
     73 H37         -3.6090     2.5460    -1.3510 h1         1 5D6       0.011700
     74 H38         -3.3110     4.8380    -1.6390 ho         1 5D6       0.410000
@<TRIPOS>BOND
     1     1    22 1   
     2     1    29 1   
     3     2     3 2   
     4     3     4 1   
     5     3    16 1   
     6     4     5 1   
     7     4     6 2   
     8     5    39 1   
     9     5    40 1   
    10     5    41 1   
    11     6     7 1   
    12     6    42 1   
    13     7     8 ar  
    14     7    15 ar  
    15     8     9 ar  
    16     8    43 1   
    17     9    10 ar  
    18     9    44 1   
    19    10    11 1   
    20    10    14 ar  
    21    11    12 1   
    22    11    13 1   
    23    12    45 1   
    24    12    46 1   
    25    12    47 1   
    26    13    48 1   
    27    13    49 1   
    28    13    50 1   
    29    14    15 ar  
    30    14    51 1   
    31    15    52 1   
    32    16    17 1   
    33    16    53 1   
    34    17    18 1   
    35    17    23 1   
    36    17    54 1   
    37    18    19 1   
    38    18    20 1   
    39    18    55 1   
    40    19    56 1   
    41    20    21 1   
    42    20    22 1   
    43    20    57 1   
    44    21    58 1   
    45    22    27 1   
    46    22    59 1   
    47    23    24 1   
    48    23    27 1   
    49    23    60 1   
    50    24    25 1   
    51    24    26 1   
    52    25    61 1   
    53    25    62 1   
    54    25    63 1   
    55    26    64 1   
    56    26    65 1   
    57    26    66 1   
    58    27    28 1   
    59    27    67 1   
    60    28    29 1   
    61    29    30 1   
    62    29    68 1   
    63    30    31 1   
    64    31    32 1   
    65    31    35 1   
    66    31    69 1   
    67    32    33 1   
    68    32    34 1   
    69    35    36 1   
    70    35    37 1   
    71    35    70 1   
    72    36    71 1   
    73    37    38 1   
    74    37    72 1   
    75    37    73 1   
    76    38    74 1   
@<TRIPOS>SUBSTRUCTURE
     1 5D6         1 TEMP              0 ****  ****    0 ROOT
