@<TRIPOS>MOLECULE
5D6
   74    76     1     0     0
SMALL
abcg2


@<TRIPOS>ATOM
      1 O3          -3.5950    -1.4400    -1.0020 os         1 5D6      -0.354000
      2 O5           2.5130    -2.8380     0.1940 o          1 5D6      -0.604100
      3 C9           2.1900    -1.6660     0.0540 c          1 5D6       0.604300
      4 C10          3.1870    -0.5630    -0.1220 ce         1 5D6      -0.185400
      5 C20          2.7070     0.7810    -0.5910 c3         1 5D6      -0.054900
      6 C11          4.4700    -0.8770     0.1260 cf         1 5D6      -0.093200
      7 C12          5.6540    -0.0320     0.1030 ca         1 5D6      -0.119800
      8 C17          6.8960    -0.6190    -0.1710 ca         1 5D6      -0.045500
      9 C16          8.0650     0.1110    -0.2210 ca         1 5D6      -0.202000
     10 C15          8.0640     1.4990     0.0320 ca         1 5D6       0.346000
     11 N2           9.2080     2.2340    -0.0230 nh         1 5D6      -0.836400
     12 C19          9.1800     3.6430     0.2940 c3         1 5D6       0.225100
     13 C18         10.4680     1.5900    -0.3100 c3         1 5D6       0.225100
     14 C14          6.8240     2.0860     0.3590 ca         1 5D6      -0.202000
     15 C13          5.6630     1.3390     0.3880 ca         1 5D6      -0.045500
     16 N1           0.8970    -1.2650     0.0610 ns         1 5D6      -0.485900
     17 C8          -0.2190    -2.1530     0.2980 c6         1 5D6       0.110700
     18 C21         -0.8280    -2.6890    -0.9970 c6         1 5D6       0.166300
     19 O6           0.1450    -3.4360    -1.6770 oh         1 5D6      -0.646000
     20 C22         -1.3310    -1.5400    -1.8530 c6         1 5D6       0.147300
     21 O7          -1.8380    -2.0690    -3.0550 oh         1 5D6      -0.708000
     22 C3          -2.3740    -0.7230    -1.1200 c5         1 5D6       0.071300
     23 C5          -1.2980    -1.4520     1.1450 c6         1 5D6       0.155500
     24 N           -0.6980    -0.8630     2.3360 n3         1 5D6      -0.733600
     25 C7          -1.6300    -0.1290     3.1760 c3         1 5D6       0.151600
     26 C6           0.0130    -1.8400     3.1410 c3         1 5D6       0.151600
     27 C4          -2.0760    -0.3850     0.3440 c5         1 5D6       0.113300
     28 O4          -3.3890    -0.2500     0.8730 os         1 5D6      -0.442000
     29 C2          -4.3170    -0.7800    -0.0330 c5         1 5D6       0.481300
     30 O2          -5.0340     0.2260    -0.6520 os         1 5D6      -0.412000
     31 C1          -5.9090     0.9690     0.1720 c3         1 5D6      -0.037700
     32 C           -7.3300     0.3560     0.1680 c          1 5D6       0.708000
     33 O1          -7.4600    -0.8120    -0.2100 o          1 5D6      -0.707000
     34 O           -8.2450     1.1140     0.5870 o          1 5D6      -0.707000
     35 C23         -5.8880     2.4290    -0.3140 c3         1 5D6       0.199300
     36 O8          -6.7540     3.2120     0.4660 oh         1 5D6      -0.775000
     37 C24         -4.4900     3.0120    -0.2200 c3         1 5D6       0.152600
     38 O9          -4.5250     4.3380    -0.6990 oh         1 5D6      -0.647000
     39 H1           2.3120     1.3990     0.2200 hc         1 5D6       0.042367
     40 H2           3.5090     1.3470    -1.0600 hc         1 5D6       0.042367
     41 H3           1.9160     0.6790    -1.3360 hc         1 5D6       0.042367
     42 H4           4.6690    -1.9180     0.3620 ha         1 5D6       0.196000
     43 H5           6.9460    -1.6850    -0.3610 ha         1 5D6       0.112500
     44 H6           8.9860    -0.4070    -0.4510 ha         1 5D6       0.109000
     45 H7           8.8640     3.8310     1.3250 h1         1 5D6       0.033700
     46 H8          10.1750     4.0580     0.1710 h1         1 5D6       0.033700
     47 H9           8.5080     4.1950    -0.3670 h1         1 5D6       0.033700
     48 H10         10.4580     1.0940    -1.2840 h1         1 5D6       0.033700
     49 H11         11.2560     2.3360    -0.3300 h1         1 5D6       0.033700
     50 H12         10.7360     0.8430     0.4430 h1         1 5D6       0.033700
     51 H13          6.7600     3.1360     0.6060 ha         1 5D6       0.109000
     52 H14          4.7510     1.8390     0.6810 ha         1 5D6       0.112500
     53 H15          0.7270    -0.2830     0.2080 hn         1 5D6       0.316500
     54 H16          0.1400    -3.0220     0.8530 h1         1 5D6       0.084700
     55 H17         -1.6810    -3.3260    -0.7150 h1         1 5D6       0.063700
     56 H18         -0.2210    -3.6650    -2.5390 ho         1 5D6       0.454000
     57 H19         -0.4820    -0.8720    -2.0520 h1         1 5D6       0.042700
     58 H20         -1.7640    -1.4030    -3.7450 ho         1 5D6       0.507000
     59 H21         -2.5410     0.2090    -1.6760 h1         1 5D6       0.063700
     60 H22         -2.0220    -2.2430     1.4110 h1         1 5D6       0.054700
     61 H24         -2.4620    -0.7430     3.5490 h1         1 5D6       0.034867
     62 H25         -1.0880     0.2560     4.0400 h1         1 5D6       0.034867
     63 H26         -2.0510     0.7300     2.6590 h1         1 5D6       0.034867
     64 H27          0.8860    -2.2350     2.6240 h1         1 5D6       0.034867
     65 H28          0.3770    -1.3590     4.0480 h1         1 5D6       0.034867
     66 H29         -0.6140    -2.6910     3.4460 h1         1 5D6       0.034867
     67 H30         -1.5600     0.5770     0.4140 h1         1 5D6       0.068700
     68 H31         -4.9790    -1.4810     0.4870 h3         1 5D6       0.120700
     69 H32         -5.5610     0.9780     1.2160 h1         1 5D6       0.039700
     70 H34         -6.1930     2.4380    -1.3750 h1         1 5D6       0.037700
     71 H35         -7.5220     2.6150     0.6330 ho         1 5D6       0.569000
     72 H36         -4.1580     2.9670     0.8280 h1         1 5D6       0.011700
     73 H37         -3.7990     2.3970    -0.8050 h1         1 5D6       0.011700
     74 H38         -3.6200     4.6600    -0.7420 ho         1 5D6       0.410000
@<TRIPOS>BOND
     1     1    22 1   
     2     1    29 1   
     3     2     3 2   
     4     3     4 1   
     5     3    16 1   
     6     4     5 1   
     7     4     6 2   
     8     5    39 1   
     9     5    40 1   
    10     5    41 1   
    11     6     7 1   
    12     6    42 1   
    13     7     8 ar  
    14     7    15 ar  
    15     8     9 ar  
    16     8    43 1   
    17     9    10 ar  
    18     9    44 1   
    19    10    11 1   
    20    10    14 ar  
    21    11    12 1   
    22    11    13 1   
    23    12    45 1   
    24    12    46 1   
    25    12    47 1   
    26    13    48 1   
    27    13    49 1   
    28    13    50 1   
    29    14    15 ar  
    30    14    51 1   
    31    15    52 1   
    32    16    17 1   
    33    16    53 1   
    34    17    18 1   
    35    17    23 1   
    36    17    54 1   
    37    18    19 1   
    38    18    20 1   
    39    18    55 1   
    40    19    56 1   
    41    20    21 1   
    42    20    22 1   
    43    20    57 1   
    44    21    58 1   
    45    22    27 1   
    46    22    59 1   
    47    23    24 1   
    48    23    27 1   
    49    23    60 1   
    50    24    25 1   
    51    24    26 1   
    52    25    61 1   
    53    25    62 1   
    54    25    63 1   
    55    26    64 1   
    56    26    65 1   
    57    26    66 1   
    58    27    28 1   
    59    27    67 1   
    60    28    29 1   
    61    29    30 1   
    62    29    68 1   
    63    30    31 1   
    64    31    32 1   
    65    31    35 1   
    66    31    69 1   
    67    32    33 1   
    68    32    34 1   
    69    35    36 1   
    70    35    37 1   
    71    35    70 1   
    72    36    71 1   
    73    37    38 1   
    74    37    72 1   
    75    37    73 1   
    76    38    74 1   
@<TRIPOS>SUBSTRUCTURE
     1 5D6         1 TEMP              0 ****  ****    0 ROOT
