@<TRIPOS>MOLECULE
5DE
   36    37     1     0     0
SMALL
abcg2


@<TRIPOS>ATOM
      1 O19          1.4040    -0.0350     3.9180 o          1 5DE      -0.505000
      2 C15          0.5360    -0.0540     3.0720 c          1 5DE       0.648700
      3 O16         -0.7590    -0.0730     3.3600 os         1 5DE      -0.456100
      4 C17         -1.1480    -0.0520     4.7400 c3         1 5DE       0.168600
      5 C18         -2.6570    -0.0800     4.7900 c3         1 5DE      -0.097100
      6 C7           0.7950    -0.0740     1.6410 cc         1 5DE      -0.284600
      7 C8           2.0720    -0.1720     1.0340 cc         1 5DE       0.321300
      8 N10          1.9560    -0.1890    -0.2730 nd         1 5DE      -0.523800
      9 C9           3.4130    -0.2620     1.6740 c3         1 5DE      -0.123400
     10 C5          -0.1110    -0.0170     0.5850 cd         1 5DE      -0.046300
     11 C6          -1.5880     0.1500     0.5580 c3         1 5DE      -0.036800
     12 N4           0.6370    -0.0990    -0.5290 na         1 5DE       0.233000
     13 C3           0.2010    -0.1020    -1.8770 ca         1 5DE      -0.052200
     14 C2          -0.6990    -1.0580    -2.3280 ca         1 5DE      -0.050000
     15 C1          -1.1150    -1.0600    -3.6470 ca         1 5DE      -0.181000
     16 C11          0.6980     0.8430    -2.7660 ca         1 5DE      -0.050000
     17 C12          0.2970     0.8350    -4.0880 ca         1 5DE      -0.181000
     18 C13         -0.6210    -0.1160    -4.5570 ca         1 5DE       0.311000
     19 N14         -0.9810    -0.1540    -5.8800 nv         1 5DE      -1.078000
     20 H171        -0.7600     0.8480     5.2210 h1         1 5DE       0.048200
     21 H172        -0.7260    -0.9170     5.2570 h1         1 5DE       0.048200
     22 H181        -2.9810    -0.0610     5.8300 hc         1 5DE       0.044033
     23 H182        -3.0900     0.7840     4.2870 hc         1 5DE       0.044033
     24 H183        -3.0550    -0.9850     4.3310 hc         1 5DE       0.044033
     25 H91          3.4830    -1.1290     2.3300 hc         1 5DE       0.055700
     26 H92          4.1860    -0.3440     0.9110 hc         1 5DE       0.055700
     27 H93          3.6230     0.6170     2.2830 hc         1 5DE       0.055700
     28 H61         -2.0950    -0.7760     0.8310 hc         1 5DE       0.060033
     29 H62         -1.8990     0.9120     1.2690 hc         1 5DE       0.060033
     30 H63         -1.9350     0.4450    -0.4290 hc         1 5DE       0.060033
     31 H2          -1.0800    -1.8130    -1.6520 ha         1 5DE       0.128000
     32 H1          -1.8190    -1.8120    -3.9820 ha         1 5DE       0.118500
     33 H11          1.4000     1.5930    -2.4240 ha         1 5DE       0.128000
     34 H12          0.6950     1.5780    -4.7690 ha         1 5DE       0.118500
     35 H141        -1.8510    -0.6090    -6.0990 hn         1 5DE       0.457500
     36 H142        -0.8430     0.6920    -6.4090 hn         1 5DE       0.457500
@<TRIPOS>BOND
     1     1     2 2   
     2     2     3 1   
     3     2     6 1   
     4     3     4 1   
     5     4     5 1   
     6     4    20 1   
     7     4    21 1   
     8     5    22 1   
     9     5    23 1   
    10     5    24 1   
    11     6     7 1   
    12     6    10 2   
    13     7     8 2   
    14     7     9 1   
    15     8    12 1   
    16     9    25 1   
    17     9    26 1   
    18     9    27 1   
    19    10    11 1   
    20    10    12 1   
    21    11    28 1   
    22    11    29 1   
    23    11    30 1   
    24    12    13 1   
    25    13    14 ar  
    26    13    16 ar  
    27    14    15 ar  
    28    14    31 1   
    29    15    18 ar  
    30    15    32 1   
    31    16    17 ar  
    32    16    33 1   
    33    17    18 ar  
    34    17    34 1   
    35    18    19 1   
    36    19    35 1   
    37    19    36 1   
@<TRIPOS>SUBSTRUCTURE
     1 5DE         1 TEMP              0 ****  ****    0 ROOT
