@<TRIPOS>MOLECULE
5DE
   36    37     1     0     0
SMALL
No Charge or Current Charge


@<TRIPOS>ATOM
      1 O19          1.3880    -0.2650     3.9140 o          1 5DE      -0.505000
      2 C15          0.5620    -0.1550     3.0180 c          1 5DE       0.648700
      3 O16         -0.7700     0.0370     3.2730 os         1 5DE      -0.456100
      4 C17         -1.2040     0.1120     4.6400 c3         1 5DE       0.168600
      5 C18         -2.7250     0.3300     4.6260 c3         1 5DE      -0.097100
      6 C7           0.9000    -0.2170     1.5750 cc         1 5DE      -0.284600
      7 C8           2.1960    -0.4080     1.0300 cc         1 5DE       0.321300
      8 N10          2.2270    -0.4250    -0.2880 nd         1 5DE      -0.523800
      9 C9           3.4520    -0.5800     1.8400 c3         1 5DE      -0.123400
     10 C5           0.0370    -0.1040     0.5110 cd         1 5DE      -0.046300
     11 C6          -1.4650     0.1110     0.4550 c3         1 5DE      -0.036800
     12 N4           0.8980    -0.2370    -0.5870 na         1 5DE       0.233000
     13 C3           0.3500    -0.1710    -1.8660 ca         1 5DE      -0.052200
     14 C2          -0.1000    -1.3420    -2.5040 ca         1 5DE      -0.050000
     15 C1          -0.6570    -1.2710    -3.7940 ca         1 5DE      -0.181000
     16 C11          0.2450     1.0680    -2.5270 ca         1 5DE      -0.050000
     17 C12         -0.3130     1.1320    -3.8170 ca         1 5DE      -0.181000
     18 C13         -0.7640    -0.0360    -4.4480 ca         1 5DE       0.311000
     19 N14         -1.3070     0.0300    -5.7010 nv         1 5DE      -1.078000
     20 H171        -0.7190     0.9490     5.1610 h1         1 5DE       0.048200
     21 H172        -0.9710    -0.8170     5.1780 h1         1 5DE       0.048200
     22 H181        -3.1090     0.3940     5.6510 hc         1 5DE       0.044033
     23 H182        -2.9770     1.2610     4.1050 hc         1 5DE       0.044033
     24 H183        -3.2290    -0.5030     4.1210 hc         1 5DE       0.044033
     25 H91          3.3820    -1.4620     2.4860 hc         1 5DE       0.055700
     26 H92          4.3280    -0.7120     1.1940 hc         1 5DE       0.055700
     27 H93          3.6340     0.2980     2.4700 hc         1 5DE       0.055700
     28 H61         -1.9930    -0.7040     0.9650 hc         1 5DE       0.060033
     29 H62         -1.7420     1.0500     0.9480 hc         1 5DE       0.060033
     30 H63         -1.8550     0.1570    -0.5670 hc         1 5DE       0.060033
     31 H2          -0.0190    -2.3040    -2.0000 ha         1 5DE       0.128000
     32 H1          -1.0040    -2.1790    -4.2800 ha         1 5DE       0.118500
     33 H11          0.5940     1.9770    -2.0410 ha         1 5DE       0.128000
     34 H12         -0.3920     2.0910    -4.3210 ha         1 5DE       0.118500
     35 H141        -1.7710    -0.7870    -6.0940 hn         1 5DE       0.457500
     36 H142        -1.5250     0.9360    -6.1130 hn         1 5DE       0.457500
@<TRIPOS>BOND
     1     1     2 2   
     2     2     3 1   
     3     2     6 1   
     4     3     4 1   
     5     4     5 1   
     6     4    20 1   
     7     4    21 1   
     8     5    22 1   
     9     5    23 1   
    10     5    24 1   
    11     6     7 1   
    12     6    10 2   
    13     7     8 2   
    14     7     9 1   
    15     8    12 1   
    16     9    25 1   
    17     9    26 1   
    18     9    27 1   
    19    10    11 1   
    20    10    12 1   
    21    11    28 1   
    22    11    29 1   
    23    11    30 1   
    24    12    13 1   
    25    13    14 ar  
    26    13    16 ar  
    27    14    15 ar  
    28    14    31 1   
    29    15    18 ar  
    30    15    32 1   
    31    16    17 ar  
    32    16    33 1   
    33    17    18 ar  
    34    17    34 1   
    35    18    19 1   
    36    19    35 1   
    37    19    36 1   
@<TRIPOS>SUBSTRUCTURE
     1 5DE         1 TEMP              0 ****  ****    0 ROOT
