@<TRIPOS>MOLECULE
5DF
   40    42     1     0     0
SMALL
bcc


@<TRIPOS>ATOM
      1 C7          -3.7910    -0.0860     0.1030 cp         1 5DF      -0.059000
      2 C6          -2.6400     0.8310     0.1410 cp         1 5DF      -0.198300
      3 C9          -4.8300    -2.1870     0.7330 ca         1 5DF      -0.191500
      4 C8          -3.7530    -1.3180     0.7600 ca         1 5DF      -0.082000
      5 C18          3.3400     0.6990    -0.8900 ca         1 5DF      -0.034000
      6 C16          2.7640    -0.8980     0.8300 ca         1 5DF      -0.034000
      7 C19          2.0670     1.2360    -0.8110 ca         1 5DF      -0.145000
      8 C1          -1.3230     0.3740     0.1070 ca         1 5DF      -0.035000
      9 C2          -0.2510     1.2480     0.1470 cp         1 5DF      -0.238300
     10 C3          -0.5420     2.6290     0.2470 ca         1 5DF       0.681200
     11 N4          -1.7960     3.0740     0.2730 nb         1 5DF      -0.746000
     12 C5          -2.7970     2.2100     0.2170 ca         1 5DF       0.470200
     13 C10         -5.9890    -1.8390     0.0430 ca         1 5DF       0.142100
     14 C11         -6.0470    -0.6150    -0.6170 ca         1 5DF      -0.191500
     15 C12         -4.9580     0.2430    -0.5860 ca         1 5DF      -0.082000
     16 N13          0.4370     3.5750     0.3020 nv         1 5DF      -0.938500
     17 C14          1.1260     0.7210     0.0840 cp         1 5DF       0.032000
     18 C15          1.4960    -0.3480     0.9020 ca         1 5DF      -0.145000
     19 C17          3.6780    -0.3690    -0.0690 ca         1 5DF      -0.271500
     20 S20          5.3010    -1.0740    -0.1790 sy         1 5DF       1.089300
     21 O21          6.2270    -0.0360    -0.6270 o          1 5DF      -0.594300
     22 O22          5.5820    -1.7740     1.0730 o          1 5DF      -0.594300
     23 C23          5.1500    -2.2840    -1.4730 c3         1 5DF      -0.225300
     24 O24         -7.0120    -2.7170     0.0460 oh         1 5DF      -0.493100
     25 H28         -4.7790    -3.1330     1.2570 ha         1 5DF       0.140500
     26 H27         -2.8730    -1.6030     1.3230 ha         1 5DF       0.132000
     27 H34          3.0280    -1.7230     1.4770 ha         1 5DF       0.156000
     28 H36          1.8050     2.0570    -1.4650 ha         1 5DF       0.145500
     29 H25         -1.1280    -0.6880     0.0080 ha         1 5DF       0.139000
     30 H26         -3.7930     2.6410     0.2560 h4         1 5DF       0.021100
     31 H29         -6.9360    -0.3310    -1.1690 ha         1 5DF       0.140500
     32 H30         -5.0200     1.1790    -1.1270 ha         1 5DF       0.132000
     33 H32          1.3420     3.3090     0.6550 hn         1 5DF       0.421300
     34 H31          0.1360     4.4880     0.6010 hn         1 5DF       0.421300
     35 H33          0.7890    -0.7520     1.6160 ha         1 5DF       0.145500
     36 H38          6.1240    -2.7600    -1.5870 h1         1 5DF       0.102700
     37 H39          4.4040    -3.0240    -1.1910 h1         1 5DF       0.102700
     38 H37          4.8650    -1.7910    -2.4000 h1         1 5DF       0.102700
     39 H40         -7.7570    -2.3670    -0.4550 ho         1 5DF       0.427000
     40 H35          4.0520     1.1130    -1.5910 ha         1 5DF       0.156000
@<TRIPOS>BOND
     1     1     2 1   
     2     1     4 ar  
     3     1    15 ar  
     4     2     8 ar  
     5     2    12 ar  
     6     3     4 ar  
     7     3    13 ar  
     8     3    25 1   
     9     4    26 1   
    10     5     7 ar  
    11     5    19 ar  
    12     5    40 1   
    13     6    18 ar  
    14     6    19 ar  
    15     6    27 1   
    16     7    17 ar  
    17     7    28 1   
    18     8     9 ar  
    19     8    29 1   
    20     9    10 ar  
    21     9    17 1   
    22    10    11 ar  
    23    10    16 1   
    24    11    12 ar  
    25    12    30 1   
    26    13    14 ar  
    27    13    24 1   
    28    14    15 ar  
    29    14    31 1   
    30    15    32 1   
    31    16    33 1   
    32    16    34 1   
    33    17    18 ar  
    34    18    35 1   
    35    19    20 1   
    36    20    21 2   
    37    20    22 2   
    38    20    23 1   
    39    23    36 1   
    40    23    37 1   
    41    23    38 1   
    42    24    39 1   
@<TRIPOS>SUBSTRUCTURE
     1 5DF         1 TEMP              0 ****  ****    0 ROOT
