@<TRIPOS>MOLECULE
5DF
   40    42     1     0     0
SMALL
No Charge or Current Charge


@<TRIPOS>ATOM
      1 C7          -3.8610    -0.0920     0.1120 cp         1 5DF      -0.059000
      2 C6          -2.6720     0.8200     0.1340 cp         1 5DF      -0.133000
      3 C9          -4.9260    -2.2330     0.6820 ca         1 5DF      -0.173500
      4 C8          -3.8080    -1.3800     0.7030 ca         1 5DF      -0.064000
      5 C18          3.4190     0.7140    -0.9020 ca         1 5DF      -0.016000
      6 C16          2.8480    -0.9230     0.8090 ca         1 5DF      -0.016000
      7 C19          2.1110     1.2230    -0.8440 ca         1 5DF      -0.127000
      8 C1          -1.3490     0.3190     0.0820 ca         1 5DF      -0.017000
      9 C2          -0.2490     1.2050     0.1000 cp         1 5DF      -0.173000
     10 C3          -0.5610     2.5840     0.1800 ca         1 5DF       0.615900
     11 N4          -1.7800     3.0990     0.2390 nb         1 5DF      -0.746000
     12 C5          -2.8160     2.2310     0.2090 ca         1 5DF       0.404900
     13 C10         -6.1160    -1.8180     0.0710 ca         1 5DF       0.142100
     14 C11         -6.1940    -0.5490    -0.5200 ca         1 5DF      -0.173500
     15 C12         -5.0770     0.3070    -0.4990 ca         1 5DF      -0.064000
     16 N13          0.3370     3.5690     0.2680 nv         1 5DF      -1.048900
     17 C14          1.1500     0.6790     0.0420 cp         1 5DF       0.032000
     18 C15          1.5420    -0.4080     0.8590 ca         1 5DF      -0.127000
     19 C17          3.7950    -0.3600    -0.0700 ca         1 5DF      -0.271500
     20 S20          5.4710    -1.0260    -0.1480 sy         1 5DF       1.058500
     21 O21          6.3690     0.0060    -0.6840 o          1 5DF      -0.523500
     22 O22          5.7690    -1.7140     1.1150 o          1 5DF      -0.523500
     23 C23          5.3440    -2.2960    -1.4050 c3         1 5DF      -0.336100
     24 O24         -7.1930    -2.6520     0.0560 oh         1 5DF      -0.532100
     25 H28         -4.8670    -3.2150     1.1440 ha         1 5DF       0.122500
     26 H27         -2.9000    -1.7180     1.1960 ha         1 5DF       0.114000
     27 H34          3.1170    -1.7590     1.4550 ha         1 5DF       0.138000
     28 H36          1.8330     2.0400    -1.5060 ha         1 5DF       0.127500
     29 H25         -1.1740    -0.7510     0.0020 ha         1 5DF       0.121000
     30 H26         -3.8060     2.6810     0.2670 h4         1 5DF       0.021100
     31 H29         -7.1120    -0.2180    -1.0000 ha         1 5DF       0.122500
     32 H30         -5.1560     1.2810    -0.9750 ha         1 5DF       0.114000
     33 H32          1.2570     3.3180     0.6100 hn         1 5DF       0.476500
     34 H31         -0.0360     4.4570     0.5790 hn         1 5DF       0.476500
     35 H33          0.8260    -0.8500     1.5470 ha         1 5DF       0.127500
     36 H38          6.3290    -2.7610    -1.5220 h1         1 5DF       0.102700
     37 H39          4.6040    -3.0320    -1.0740 h1         1 5DF       0.102700
     38 H37          5.0260    -1.8220    -2.3390 h1         1 5DF       0.102700
     39 H40         -7.9300    -2.2000    -0.4090 ho         1 5DF       0.466000
     40 H35          4.1320     1.1540    -1.5980 ha         1 5DF       0.138000
@<TRIPOS>BOND
     1     1     2 1   
     2     1     4 ar  
     3     1    15 ar  
     4     2     8 ar  
     5     2    12 ar  
     6     3     4 ar  
     7     3    13 ar  
     8     3    25 1   
     9     4    26 1   
    10     5     7 ar  
    11     5    19 ar  
    12     5    40 1   
    13     6    18 ar  
    14     6    19 ar  
    15     6    27 1   
    16     7    17 ar  
    17     7    28 1   
    18     8     9 ar  
    19     8    29 1   
    20     9    10 ar  
    21     9    17 1   
    22    10    11 ar  
    23    10    16 1   
    24    11    12 ar  
    25    12    30 1   
    26    13    14 ar  
    27    13    24 1   
    28    14    15 ar  
    29    14    31 1   
    30    15    32 1   
    31    16    33 1   
    32    16    34 1   
    33    17    18 ar  
    34    18    35 1   
    35    19    20 1   
    36    20    21 2   
    37    20    22 2   
    38    20    23 1   
    39    23    36 1   
    40    23    37 1   
    41    23    38 1   
    42    24    39 1   
@<TRIPOS>SUBSTRUCTURE
     1 5DF         1 TEMP              0 ****  ****    0 ROOT
