@<TRIPOS>MOLECULE
5DG
   53    56     1     0     0
SMALL
bcc


@<TRIPOS>ATOM
      1 C01         -0.2950     1.8920     1.2320 c3         1 5DG      -0.052900
      2 C02         -0.6860     0.4930     0.8460 ce         1 5DG      -0.048400
      3 C03          0.3380    -0.5390     1.1470 ca         1 5DG      -0.018800
      4 C04          0.0210    -1.6400     1.9420 ca         1 5DG      -0.143000
      5 C05          0.9900    -2.5950     2.2120 ca         1 5DG      -0.093000
      6 C06          2.2790    -2.4590     1.7230 ca         1 5DG      -0.188000
      7 C07          2.6180    -1.3520     0.9390 ca         1 5DG       0.178600
      8 N08          3.9050    -1.2620     0.4330 nu         1 5DG      -0.669000
      9 C09          4.5910    -0.1210     0.0470 ca         1 5DG       0.171600
     10 C10          4.3400     1.1360     0.6050 ca         1 5DG      -0.162500
     11 C11          5.0700     2.2460     0.2100 ca         1 5DG      -0.133500
     12 C12          6.0710     2.0980    -0.7290 ca         1 5DG       0.095900
     13 F13          6.7830     3.1770    -1.1090 f          1 5DG      -0.146900
     14 C14          6.3610     0.8670    -1.2830 ca         1 5DG      -0.133500
     15 C15          5.6130    -0.2350    -0.9000 ca         1 5DG      -0.162500
     16 C16          1.6340    -0.4030     0.6560 ca         1 5DG      -0.178000
     17 C17         -1.8650     0.1690     0.2790 cf         1 5DG       0.011600
     18 C18         -2.9700     1.1430     0.1210 ca         1 5DG      -0.090800
     19 C19         -3.6000     1.3060    -1.1150 ca         1 5DG      -0.074000
     20 C20         -4.6380     2.2040    -1.2880 ca         1 5DG      -0.198250
     21 C21         -5.0920     2.9590    -0.2070 ca         1 5DG       0.141100
     22 O22         -6.1090     3.8170    -0.4200 oh         1 5DG      -0.494100
     23 C23         -4.4930     2.7950     1.0380 ca         1 5DG      -0.198250
     24 C24         -3.4480     1.8960     1.1920 ca         1 5DG      -0.074000
     25 C25         -2.1420    -1.1830    -0.2640 ca         1 5DG      -0.090800
     26 C26         -3.3240    -1.8480     0.0550 ca         1 5DG      -0.074000
     27 C27         -3.6060    -3.1090    -0.4460 ca         1 5DG      -0.198250
     28 C28         -2.7060    -3.7300    -1.3080 ca         1 5DG       0.141100
     29 O29         -2.9260    -4.9520    -1.8340 oh         1 5DG      -0.494100
     30 C30         -1.5300    -3.0700    -1.6580 ca         1 5DG      -0.198250
     31 C31         -1.2600    -1.8160    -1.1390 ca         1 5DG      -0.074000
     32 H1          -0.2480     2.0050     2.3180 hc         1 5DG       0.045367
     33 H2           0.7030     2.1220     0.8560 hc         1 5DG       0.045367
     34 H3          -0.9770     2.6440     0.8430 hc         1 5DG       0.045367
     35 H5          -0.9780    -1.7480     2.3420 ha         1 5DG       0.139000
     36 H6           0.7460    -3.4520     2.8270 ha         1 5DG       0.132000
     37 H7           3.0310    -3.2040     1.9540 ha         1 5DG       0.130000
     38 H8           4.4010    -2.1320     0.3310 hn         1 5DG       0.439800
     39 H9           3.5850     1.2570     1.3700 ha         1 5DG       0.140000
     40 H10          4.8670     3.2150     0.6480 ha         1 5DG       0.148500
     41 H11          7.1520     0.7650    -2.0150 ha         1 5DG       0.148500
     42 H12          5.8270    -1.2000    -1.3450 ha         1 5DG       0.140000
     43 H13          1.8690     0.4320     0.0090 ha         1 5DG       0.141000
     44 H15         -3.2670     0.7240    -1.9650 ha         1 5DG       0.137000
     45 H16         -5.1010     2.3230    -2.2600 ha         1 5DG       0.139000
     46 H17         -6.3260     4.2860     0.3930 ho         1 5DG       0.425000
     47 H18         -4.8430     3.3640     1.8920 ha         1 5DG       0.139000
     48 H19         -3.0060     1.7740     2.1730 ha         1 5DG       0.137000
     49 H20         -4.0400    -1.3780     0.7180 ha         1 5DG       0.137000
     50 H21         -4.5290    -3.6060    -0.1670 ha         1 5DG       0.139000
     51 H22         -3.7660    -5.3050    -1.5220 ho         1 5DG       0.425000
     52 H23         -0.8340    -3.5400    -2.3410 ha         1 5DG       0.139000
     53 H24         -0.3440    -1.3180    -1.4300 ha         1 5DG       0.137000
@<TRIPOS>BOND
     1     1     2 1   
     2     1    32 1   
     3     1    33 1   
     4     1    34 1   
     5     2     3 1   
     6     2    17 2   
     7     3     4 ar  
     8     3    16 ar  
     9     4     5 ar  
    10     4    35 1   
    11     5     6 ar  
    12     5    36 1   
    13     6     7 ar  
    14     6    37 1   
    15     7     8 1   
    16     7    16 ar  
    17     8     9 1   
    18     8    38 1   
    19     9    10 ar  
    20     9    15 ar  
    21    10    11 ar  
    22    10    39 1   
    23    11    12 ar  
    24    11    40 1   
    25    12    13 1   
    26    12    14 ar  
    27    14    15 ar  
    28    14    41 1   
    29    15    42 1   
    30    16    43 1   
    31    17    18 1   
    32    17    25 1   
    33    18    19 ar  
    34    18    24 ar  
    35    19    20 ar  
    36    19    44 1   
    37    20    21 ar  
    38    20    45 1   
    39    21    22 1   
    40    21    23 ar  
    41    22    46 1   
    42    23    24 ar  
    43    23    47 1   
    44    24    48 1   
    45    25    26 ar  
    46    25    31 ar  
    47    26    27 ar  
    48    26    49 1   
    49    27    28 ar  
    50    27    50 1   
    51    28    29 1   
    52    28    30 ar  
    53    29    51 1   
    54    30    31 ar  
    55    30    52 1   
    56    31    53 1   
@<TRIPOS>SUBSTRUCTURE
     1 5DG         1 TEMP              0 ****  ****    0 ROOT
