@<TRIPOS>MOLECULE
5DG
   53    56     1     0     0
SMALL
No Charge or Current Charge


@<TRIPOS>ATOM
      1 C01         -0.3930     1.8480     1.4750 c3         1 5DG      -0.052900
      2 C02         -0.7120     0.4340     0.9990 ce         1 5DG      -0.048400
      3 C03          0.3730    -0.5580     1.2530 ca         1 5DG      -0.018800
      4 C04          0.1080    -1.7060     2.0230 ca         1 5DG      -0.125000
      5 C05          1.1160    -2.6590     2.2440 ca         1 5DG      -0.075000
      6 C06          2.3970    -2.4630     1.7010 ca         1 5DG      -0.170000
      7 C07          2.6780    -1.3140     0.9440 ca         1 5DG       0.317000
      8 N08          3.9570    -1.1570     0.4050 nu         1 5DG      -1.001000
      9 C09          4.6920    -0.0470    -0.0160 ca         1 5DG       0.310000
     10 C10          4.4450     1.2410     0.4990 ca         1 5DG      -0.144500
     11 C11          5.2130     2.3400     0.0670 ca         1 5DG      -0.115500
     12 C12          6.2350     2.1490    -0.8760 ca         1 5DG       0.131000
     13 F13          6.9730     3.2020    -1.2900 f          1 5DG      -0.182000
     14 C14          6.5000     0.8670    -1.3820 ca         1 5DG      -0.115500
     15 C15          5.7310    -0.2300    -0.9460 ca         1 5DG      -0.144500
     16 C16          1.6590    -0.3740     0.7100 ca         1 5DG      -0.160000
     17 C17         -1.8920     0.1380     0.3620 cf         1 5DG       0.011600
     18 C18         -2.9950     1.1040     0.1390 ca         1 5DG      -0.090800
     19 C19         -3.5230     1.2910    -1.1550 ca         1 5DG      -0.056000
     20 C20         -4.5750     2.1990    -1.3710 ca         1 5DG      -0.180250
     21 C21         -5.1110     2.9220    -0.2960 ca         1 5DG       0.141100
     22 O22         -6.1300     3.7990    -0.5150 oh         1 5DG      -0.533100
     23 C23         -4.6010     2.7370     0.9970 ca         1 5DG      -0.180250
     24 C24         -3.5480     1.8290     1.2150 ca         1 5DG      -0.056000
     25 C25         -2.2190    -1.1900    -0.2170 ca         1 5DG      -0.090800
     26 C26         -3.4890    -1.7700    -0.0050 ca         1 5DG      -0.056000
     27 C27         -3.8030    -3.0260    -0.5540 ca         1 5DG      -0.180250
     28 C28         -2.8520    -3.7130    -1.3230 ca         1 5DG       0.141100
     29 O29         -3.1480    -4.9300    -1.8580 oh         1 5DG      -0.533100
     30 C30         -1.5910    -3.1450    -1.5470 ca         1 5DG      -0.180250
     31 C31         -1.2750    -1.8890    -1.0000 ca         1 5DG      -0.056000
     32 H1          -0.8580     2.0520     2.4470 hc         1 5DG       0.045367
     33 H2           0.6840     2.0120     1.6000 hc         1 5DG       0.045367
     34 H3          -0.7480     2.6050     0.7660 hc         1 5DG       0.045367
     35 H5          -0.8830    -1.8620     2.4420 ha         1 5DG       0.121000
     36 H6           0.9040    -3.5480     2.8350 ha         1 5DG       0.114000
     37 H7           3.1720    -3.2030     1.8770 ha         1 5DG       0.112000
     38 H8           4.4590    -2.0400     0.2980 hn         1 5DG       0.495000
     39 H9           3.6740     1.3940     1.2480 ha         1 5DG       0.122000
     40 H10          5.0200     3.3330     0.4650 ha         1 5DG       0.130500
     41 H11          7.2980     0.7240    -2.1070 ha         1 5DG       0.130500
     42 H12          5.9390    -1.2200    -1.3420 ha         1 5DG       0.122000
     43 H13          1.8540     0.4900     0.0830 ha         1 5DG       0.123000
     44 H15         -3.1130     0.7370    -1.9970 ha         1 5DG       0.119000
     45 H16         -4.9720     2.3410    -2.3720 ha         1 5DG       0.121000
     46 H17         -6.3750     4.2090     0.3420 ho         1 5DG       0.464000
     47 H18         -5.0150     3.2860     1.8390 ha         1 5DG       0.121000
     48 H19         -3.1750     1.6770     2.2250 ha         1 5DG       0.119000
     49 H20         -4.2330    -1.2510     0.5950 ha         1 5DG       0.119000
     50 H21         -4.7850    -3.4570    -0.3750 ha         1 5DG       0.121000
     51 H22         -4.0650    -5.1660    -1.6010 ho         1 5DG       0.464000
     52 H23         -0.8560    -3.6740    -2.1480 ha         1 5DG       0.121000
     53 H24         -0.2980    -1.4550    -1.1980 ha         1 5DG       0.119000
@<TRIPOS>BOND
     1     1     2 1   
     2     1    32 1   
     3     1    33 1   
     4     1    34 1   
     5     2     3 1   
     6     2    17 2   
     7     3     4 ar  
     8     3    16 ar  
     9     4     5 ar  
    10     4    35 1   
    11     5     6 ar  
    12     5    36 1   
    13     6     7 ar  
    14     6    37 1   
    15     7     8 1   
    16     7    16 ar  
    17     8     9 1   
    18     8    38 1   
    19     9    10 ar  
    20     9    15 ar  
    21    10    11 ar  
    22    10    39 1   
    23    11    12 ar  
    24    11    40 1   
    25    12    13 1   
    26    12    14 ar  
    27    14    15 ar  
    28    14    41 1   
    29    15    42 1   
    30    16    43 1   
    31    17    18 1   
    32    17    25 1   
    33    18    19 ar  
    34    18    24 ar  
    35    19    20 ar  
    36    19    44 1   
    37    20    21 ar  
    38    20    45 1   
    39    21    22 1   
    40    21    23 ar  
    41    22    46 1   
    42    23    24 ar  
    43    23    47 1   
    44    24    48 1   
    45    25    26 ar  
    46    25    31 ar  
    47    26    27 ar  
    48    26    49 1   
    49    27    28 ar  
    50    27    50 1   
    51    28    29 1   
    52    28    30 ar  
    53    29    51 1   
    54    30    31 ar  
    55    30    52 1   
    56    31    53 1   
@<TRIPOS>SUBSTRUCTURE
     1 5DG         1 TEMP              0 ****  ****    0 ROOT
