@<TRIPOS>MOLECULE
5DH
   39    41     1     0     0
SMALL
No Charge or Current Charge


@<TRIPOS>ATOM
      1 N01         -1.1590    -3.7710    -0.5160 n1         1 5DH      -0.460000
      2 C02         -0.5560    -2.7780    -0.3880 cg         1 5DH       0.287700
      3 C03          0.2300    -1.5870    -0.2290 ce         1 5DH       0.034100
      4 C04         -0.3550    -0.3530    -0.0900 cf         1 5DH       0.083600
      5 C05          0.3990     0.9010     0.1690 ca         1 5DH      -0.117300
      6 C06          0.0760     2.0880    -0.5250 ca         1 5DH      -0.043750
      7 C07          0.7880     3.2750    -0.2800 ca         1 5DH      -0.182750
      8 C08          1.8270     3.2890     0.6620 ca         1 5DH       0.153600
      9 O09          2.5210     4.4350     0.9050 oh         1 5DH      -0.529100
     10 C10          2.1520     2.1200     1.3620 ca         1 5DH      -0.182750
     11 C11          1.4420     0.9310     1.1200 ca         1 5DH      -0.043750
     12 C12         -1.8180    -0.0960    -0.1350 ca         1 5DH      -0.117300
     13 C13         -2.4430     0.6250     0.9050 ca         1 5DH      -0.043750
     14 C14         -3.8250     0.8830     0.8650 ca         1 5DH      -0.182750
     15 C15         -4.5920     0.4270    -0.2170 ca         1 5DH       0.153600
     16 O16         -5.9310     0.6740    -0.2640 oh         1 5DH      -0.529100
     17 C17         -3.9800    -0.2810    -1.2600 ca         1 5DH      -0.182750
     18 C18         -2.6000    -0.5410    -1.2230 ca         1 5DH      -0.043750
     19 C19          1.7010    -1.8560    -0.2470 ca         1 5DH      -0.051800
     20 C20          2.2790    -2.8060     0.6220 ca         1 5DH      -0.090500
     21 C21          3.6650    -3.0410     0.5990 ca         1 5DH      -0.112000
     22 C22          4.4850    -2.3290    -0.2920 ca         1 5DH      -0.102000
     23 C23          3.9190    -1.3810    -1.1600 ca         1 5DH      -0.112000
     24 C24          2.5330    -1.1460    -1.1380 ca         1 5DH      -0.090500
     25 H3          -0.7220     2.0900    -1.2650 ha         1 5DH       0.122750
     26 H4           0.5280     4.1770    -0.8280 ha         1 5DH       0.124250
     27 H5           2.1600     5.1440     0.3320 ho         1 5DH       0.467000
     28 H6           2.9530     2.1320     2.0960 ha         1 5DH       0.124250
     29 H7           1.6980     0.0370     1.6840 ha         1 5DH       0.122750
     30 H8          -1.8580     0.9810     1.7510 ha         1 5DH       0.122750
     31 H9          -4.2890     1.4360     1.6780 ha         1 5DH       0.124250
     32 H10         -6.1820     1.1760     0.5410 ho         1 5DH       0.467000
     33 H11         -4.5750    -0.6270    -2.1010 ha         1 5DH       0.124250
     34 H12         -2.1370    -1.0770    -2.0490 ha         1 5DH       0.122750
     35 H13          1.6570    -3.3590     1.3230 ha         1 5DH       0.119000
     36 H14          4.1030    -3.7740     1.2730 ha         1 5DH       0.115000
     37 H15          5.5580    -2.5110    -0.3080 ha         1 5DH       0.114000
     38 H16          4.5530    -0.8280    -1.8490 ha         1 5DH       0.115000
     39 H17          2.1040    -0.4110    -1.8150 ha         1 5DH       0.119000
@<TRIPOS>BOND
     1     1     2 3   
     2     2     3 1   
     3     3     4 2   
     4     3    19 1   
     5     4     5 1   
     6     4    12 1   
     7     5     6 ar  
     8     5    11 ar  
     9     6     7 ar  
    10     6    25 1   
    11     7     8 ar  
    12     7    26 1   
    13     8     9 1   
    14     8    10 ar  
    15     9    27 1   
    16    10    11 ar  
    17    10    28 1   
    18    11    29 1   
    19    12    13 ar  
    20    12    18 ar  
    21    13    14 ar  
    22    13    30 1   
    23    14    15 ar  
    24    14    31 1   
    25    15    16 1   
    26    15    17 ar  
    27    16    32 1   
    28    17    18 ar  
    29    17    33 1   
    30    18    34 1   
    31    19    20 ar  
    32    19    24 ar  
    33    20    21 ar  
    34    20    35 1   
    35    21    22 ar  
    36    21    36 1   
    37    22    23 ar  
    38    22    37 1   
    39    23    24 ar  
    40    23    38 1   
    41    24    39 1   
@<TRIPOS>SUBSTRUCTURE
     1 5DH         1 TEMP              0 ****  ****    0 ROOT
