@<TRIPOS>MOLECULE
5DH
   39    41     1     0     0
SMALL
abcg2


@<TRIPOS>ATOM
      1 N01         -1.2330    -3.6370    -0.0580 n1         1 5DH      -0.460000
      2 C02         -0.6240    -2.6560    -0.0890 cg         1 5DH       0.287700
      3 C03          0.2020    -1.4940    -0.0990 ce         1 5DH       0.034100
      4 C04         -0.3640    -0.2630     0.0060 cf         1 5DH       0.083600
      5 C05          0.4390     0.9420     0.2580 ca         1 5DH      -0.117300
      6 C06          0.1670     2.1260    -0.4280 ca         1 5DH      -0.043750
      7 C07          0.9130     3.2710    -0.2110 ca         1 5DH      -0.182750
      8 C08          1.9400     3.2620     0.7310 ca         1 5DH       0.153600
      9 O09          2.6940     4.3420     0.9920 oh         1 5DH      -0.529100
     10 C10          2.2050     2.0940     1.4480 ca         1 5DH      -0.182750
     11 C11          1.4670     0.9530     1.2050 ca         1 5DH      -0.043750
     12 C12         -1.8190    -0.0750    -0.1120 ca         1 5DH      -0.117300
     13 C13         -2.5050     0.7080     0.8180 ca         1 5DH      -0.043750
     14 C14         -3.8740     0.8860     0.7330 ca         1 5DH      -0.182750
     15 C15         -4.5890     0.3020    -0.3120 ca         1 5DH       0.153600
     16 O16         -5.9160     0.4470    -0.4520 oh         1 5DH      -0.529100
     17 C17         -3.9130    -0.4590    -1.2660 ca         1 5DH      -0.182750
     18 C18         -2.5470    -0.6440    -1.1590 ca         1 5DH      -0.043750
     19 C19          1.6530    -1.7690    -0.2190 ca         1 5DH      -0.051800
     20 C20          2.2630    -2.7400     0.5740 ca         1 5DH      -0.090500
     21 C21          3.6200    -3.0010     0.4470 ca         1 5DH      -0.112000
     22 C22          4.3810    -2.3010    -0.4790 ca         1 5DH      -0.102000
     23 C23          3.7760    -1.3430    -1.2830 ca         1 5DH      -0.112000
     24 C24          2.4210    -1.0800    -1.1570 ca         1 5DH      -0.090500
     25 H3          -0.6290     2.1520    -1.1620 ha         1 5DH       0.122750
     26 H4           0.6930     4.1710    -0.7740 ha         1 5DH       0.124250
     27 H5           2.4290     5.0830     0.4350 ho         1 5DH       0.467000
     28 H6           2.9880     2.0890     2.1950 ha         1 5DH       0.124250
     29 H7           1.6830     0.0610     1.7780 ha         1 5DH       0.122750
     30 H8          -1.9660     1.1700     1.6350 ha         1 5DH       0.122750
     31 H9          -4.3860     1.4820     1.4800 ha         1 5DH       0.124250
     32 H10         -6.2760     0.9880     0.2600 ho         1 5DH       0.467000
     33 H11         -4.4600    -0.8950    -2.0920 ha         1 5DH       0.124250
     34 H12         -2.0370    -1.2160    -1.9230 ha         1 5DH       0.122750
     35 H13          1.6790    -3.2860     1.3040 ha         1 5DH       0.119000
     36 H14          4.0830    -3.7520     1.0740 ha         1 5DH       0.115000
     37 H15          5.4390    -2.5060    -0.5800 ha         1 5DH       0.114000
     38 H16          4.3600    -0.8020    -2.0170 ha         1 5DH       0.115000
     39 H17          1.9540    -0.3410    -1.7950 ha         1 5DH       0.119000
@<TRIPOS>BOND
     1     1     2 3   
     2     2     3 1   
     3     3     4 2   
     4     3    19 1   
     5     4     5 1   
     6     4    12 1   
     7     5     6 ar  
     8     5    11 ar  
     9     6     7 ar  
    10     6    25 1   
    11     7     8 ar  
    12     7    26 1   
    13     8     9 1   
    14     8    10 ar  
    15     9    27 1   
    16    10    11 ar  
    17    10    28 1   
    18    11    29 1   
    19    12    13 ar  
    20    12    18 ar  
    21    13    14 ar  
    22    13    30 1   
    23    14    15 ar  
    24    14    31 1   
    25    15    16 1   
    26    15    17 ar  
    27    16    32 1   
    28    17    18 ar  
    29    17    33 1   
    30    18    34 1   
    31    19    20 ar  
    32    19    24 ar  
    33    20    21 ar  
    34    20    35 1   
    35    21    22 ar  
    36    21    36 1   
    37    22    23 ar  
    38    22    37 1   
    39    23    24 ar  
    40    23    38 1   
    41    24    39 1   
@<TRIPOS>SUBSTRUCTURE
     1 5DH         1 TEMP              0 ****  ****    0 ROOT
