@<TRIPOS>MOLECULE
5DI
   21    21     1     0     0
SMALL
No Charge or Current Charge


@<TRIPOS>ATOM
      1 C1          -1.2140     1.0960     1.1760 c6         1 5DI       0.072600
      2 C2          -2.0120     0.0880     0.3150 c          1 5DI       0.525100
      3 O2          -3.1920    -0.1680     0.5350 o          1 5DI      -0.497100
      4 C3          -1.2500    -0.4960    -0.9140 c6         1 5DI       0.039300
      5 O3          -1.3180     0.4280    -2.0310 oh         1 5DI      -0.629000
      6 C4           0.2350    -0.8340    -0.5450 c6         1 5DI       0.130300
      7 O4           0.2240    -2.0780     0.2060 oh         1 5DI      -0.708000
      8 C5           0.9150     0.3220     0.2910 c6         1 5DI       0.439000
      9 O5           0.1300     0.6310     1.4750 os         1 5DI      -0.453000
     10 C6           2.3760    -0.0220     0.7620 c3         1 5DI       0.153600
     11 O6           3.3090    -0.3070    -0.3120 oh         1 5DI      -0.716000
     12 F1           1.0000     1.4970    -0.4920 f          1 5DI      -0.254000
     13 H11C        -1.1740     2.0480     0.6290 h1         1 5DI       0.083700
     14 H12C        -1.7640     1.2510     2.1140 h1         1 5DI       0.083700
     15 H3C         -1.7650    -1.4300    -1.1820 h1         1 5DI       0.057700
     16 H3O         -2.2520     0.4550    -2.3430 ho         1 5DI       0.455000
     17 H4C          0.8110    -0.9580    -1.4750 h1         1 5DI       0.087700
     18 H4O          0.2380    -2.8180    -0.4480 ho         1 5DI       0.511000
     19 H61C         2.7370     0.8280     1.3570 h1         1 5DI       0.051700
     20 H62C         2.3130    -0.8820     1.4440 h1         1 5DI       0.051700
     21 H6O          4.1860    -0.4870     0.1040 ho         1 5DI       0.514000
@<TRIPOS>BOND
     1     1     2 1   
     2     1     9 1   
     3     1    13 1   
     4     1    14 1   
     5     2     3 2   
     6     2     4 1   
     7     4     5 1   
     8     4     6 1   
     9     4    15 1   
    10     5    16 1   
    11     6     7 1   
    12     6     8 1   
    13     6    17 1   
    14     7    18 1   
    15     8     9 1   
    16     8    10 1   
    17     8    12 1   
    18    10    11 1   
    19    10    19 1   
    20    10    20 1   
    21    11    21 1   
@<TRIPOS>SUBSTRUCTURE
     1 5DI         1 TEMP              0 ****  ****    0 ROOT
