@<TRIPOS>MOLECULE
5DI
   21    21     1     0     0
SMALL
abcg2


@<TRIPOS>ATOM
      1 C1          -1.2020     1.0040     1.1490 c6         1 5DI       0.072600
      2 C2          -1.9310    -0.0110     0.2950 c          1 5DI       0.525100
      3 O2          -3.0650    -0.3460     0.5340 o          1 5DI      -0.497100
      4 C3          -1.1760    -0.4730    -0.9420 c6         1 5DI       0.039300
      5 O3          -1.2160     0.5640    -1.8900 oh         1 5DI      -0.629000
      6 C4           0.2670    -0.7930    -0.5510 c6         1 5DI       0.130300
      7 O4           0.2400    -1.8950     0.3240 oh         1 5DI      -0.708000
      8 C5           0.9150     0.3440     0.2460 c6         1 5DI       0.439000
      9 O5           0.1670     0.6920     1.3460 os         1 5DI      -0.453000
     10 C6           2.3100     0.0230     0.7610 c3         1 5DI       0.153600
     11 O6           3.1100    -0.3380    -0.3330 oh         1 5DI      -0.716000
     12 F1           1.0190     1.4380    -0.6030 f          1 5DI      -0.254000
     13 H11C        -1.3230     1.9900     0.6830 h1         1 5DI       0.083700
     14 H12C        -1.6570     1.0500     2.1370 h1         1 5DI       0.083700
     15 H3C         -1.6420    -1.3900    -1.3250 h1         1 5DI       0.057700
     16 H3O         -2.0860     0.5650    -2.3020 ho         1 5DI       0.455000
     17 H4C          0.8550    -0.9900    -1.4540 h1         1 5DI       0.087700
     18 H4O          0.0940    -2.6940    -0.1920 ho         1 5DI       0.511000
     19 H61C         2.6920     0.9160     1.2740 h1         1 5DI       0.051700
     20 H62C         2.2370    -0.7740     1.5070 h1         1 5DI       0.051700
     21 H6O          3.9260    -0.7170     0.0030 ho         1 5DI       0.514000
@<TRIPOS>BOND
     1     1     2 1   
     2     1     9 1   
     3     1    13 1   
     4     1    14 1   
     5     2     3 2   
     6     2     4 1   
     7     4     5 1   
     8     4     6 1   
     9     4    15 1   
    10     5    16 1   
    11     6     7 1   
    12     6     8 1   
    13     6    17 1   
    14     7    18 1   
    15     8     9 1   
    16     8    10 1   
    17     8    12 1   
    18    10    11 1   
    19    10    19 1   
    20    10    20 1   
    21    11    21 1   
@<TRIPOS>SUBSTRUCTURE
     1 5DI         1 TEMP              0 ****  ****    0 ROOT
