@<TRIPOS>MOLECULE
5DJ
   38    40     1     0     0
SMALL
bcc


@<TRIPOS>ATOM
      1 C01         -1.1730     0.9470     1.1050 ca         1 5DJ      -0.076500
      2 C06         -1.9120     2.1210     1.2040 ca         1 5DJ      -0.197500
      3 C05         -1.8000     3.0890     0.2050 ca         1 5DJ       0.144100
      4 O01         -2.4690     4.2490     0.2100 oh         1 5DJ      -0.495100
      5 C04         -0.9280     2.8570    -0.8670 ca         1 5DJ      -0.197500
      6 C03         -0.1960     1.7040    -0.9330 ca         1 5DJ      -0.076500
      7 C02         -0.3170     0.7140     0.0420 ca         1 5DJ      -0.092800
      8 C14          0.4590    -0.5280    -0.0500 ce         1 5DJ       0.008600
      9 C07          1.9310    -0.4410    -0.1050 ca         1 5DJ      -0.092800
     10 C08          2.7080    -1.3860    -0.7630 ca         1 5DJ      -0.076500
     11 C09          4.0810    -1.3030    -0.7600 ca         1 5DJ      -0.197500
     12 C10          4.7210    -0.2440    -0.0870 ca         1 5DJ       0.144100
     13 O02          6.0730    -0.2120    -0.1180 oh         1 5DJ      -0.495100
     14 C11          3.9510     0.7040     0.5600 ca         1 5DJ      -0.197500
     15 C12          2.5860     0.6030     0.5370 ca         1 5DJ      -0.076500
     16 C13         -0.1590    -1.7050    -0.0200 cf         1 5DJ      -0.100200
     17 C15         -1.6090    -1.8310    -0.0630 ca         1 5DJ      -0.064800
     18 C16         -2.3540    -0.8920    -0.7580 ca         1 5DJ      -0.117000
     19 C17         -3.7330    -1.0040    -0.8470 ca         1 5DJ      -0.132000
     20 C18         -4.3860    -2.0550    -0.2180 ca         1 5DJ      -0.124000
     21 C19         -3.6390    -3.0330     0.4450 ca         1 5DJ      -0.132000
     22 C20         -2.2620    -2.9250     0.5180 ca         1 5DJ      -0.117000
     23 H1          -1.2680     0.2040     1.8930 ha         1 5DJ       0.137250
     24 H2          -2.5800     2.3290     2.0300 ha         1 5DJ       0.140000
     25 H3          -3.0400     4.3470     0.9810 ho         1 5DJ       0.427000
     26 H4          -0.8210     3.6090    -1.6580 ha         1 5DJ       0.140000
     27 H5           0.4820     1.5320    -1.7540 ha         1 5DJ       0.137250
     28 H6           2.2520    -2.2050    -1.3120 ha         1 5DJ       0.137250
     29 H7           4.6670    -2.0530    -1.2920 ha         1 5DJ       0.140000
     30 H8           6.3980     0.5640     0.3570 ho         1 5DJ       0.427000
     31 H9           4.3460     1.5590     1.0950 ha         1 5DJ       0.140000
     32 H10          2.0320     1.3610     1.0490 ha         1 5DJ       0.137250
     33 H11          0.4210    -2.6240     0.0620 ha         1 5DJ       0.133000
     34 H12         -1.8320    -0.0770    -1.2370 ha         1 5DJ       0.138500
     35 H13         -4.2750    -0.2710    -1.4270 ha         1 5DJ       0.130500
     36 H14         -5.4620    -2.1430    -0.2890 ha         1 5DJ       0.129000
     37 H15         -4.1370    -3.8790     0.9170 ha         1 5DJ       0.130500
     38 H16         -1.6880    -3.6830     1.0470 ha         1 5DJ       0.138500
@<TRIPOS>BOND
     1     1     2 ar  
     2     1     7 ar  
     3     1    23 1   
     4     2     3 ar  
     5     2    24 1   
     6     3     4 1   
     7     3     5 ar  
     8     4    25 1   
     9     5     6 ar  
    10     5    26 1   
    11     6     7 ar  
    12     6    27 1   
    13     7     8 1   
    14     8     9 1   
    15     8    16 2   
    16     9    10 ar  
    17     9    15 ar  
    18    10    11 ar  
    19    10    28 1   
    20    11    12 ar  
    21    11    29 1   
    22    12    13 1   
    23    12    14 ar  
    24    13    30 1   
    25    14    15 ar  
    26    14    31 1   
    27    15    32 1   
    28    16    17 1   
    29    16    33 1   
    30    17    18 ar  
    31    17    22 ar  
    32    18    19 ar  
    33    18    34 1   
    34    19    20 ar  
    35    19    35 1   
    36    20    21 ar  
    37    20    36 1   
    38    21    22 ar  
    39    21    37 1   
    40    22    38 1   
@<TRIPOS>SUBSTRUCTURE
     1 5DJ         1 TEMP              0 ****  ****    0 ROOT
