@<TRIPOS>MOLECULE
5DJ
   38    40     1     0     0
SMALL
No Charge or Current Charge


@<TRIPOS>ATOM
      1 C01         -1.2320     1.1850     0.9970 ca         1 5DJ      -0.058500
      2 C06         -1.8420     2.4510     1.0530 ca         1 5DJ      -0.179500
      3 C05         -1.4990     3.4370     0.1140 ca         1 5DJ       0.144100
      4 O01         -2.0850     4.6660     0.1620 oh         1 5DJ      -0.534100
      5 C04         -0.5470     3.1590    -0.8780 ca         1 5DJ      -0.179500
      6 C03          0.0630     1.8940    -0.9360 ca         1 5DJ      -0.058500
      7 C02         -0.2800     0.8970    -0.0010 ca         1 5DJ      -0.092800
      8 C14          0.3730    -0.4450    -0.0560 ce         1 5DJ       0.008600
      9 C07          1.8680    -0.3830    -0.0650 ca         1 5DJ      -0.092800
     10 C08          2.6120    -1.2640    -0.8780 ca         1 5DJ      -0.058500
     11 C09          4.0170    -1.2070    -0.8890 ca         1 5DJ      -0.179500
     12 C10          4.6900    -0.2740    -0.0890 ca         1 5DJ       0.144100
     13 O02          6.0520    -0.2270    -0.1060 oh         1 5DJ      -0.534100
     14 C11          3.9610     0.6070     0.7250 ca         1 5DJ      -0.179500
     15 C12          2.5560     0.5530     0.7370 ca         1 5DJ      -0.058500
     16 C13         -0.3030    -1.6330    -0.0410 cf         1 5DJ      -0.150200
     17 C15         -1.7510    -1.9300    -0.0830 ca         1 5DJ      -0.064800
     18 C16         -2.6710    -1.0760    -0.7270 ca         1 5DJ      -0.099000
     19 C17         -4.0400    -1.3950    -0.7590 ca         1 5DJ      -0.114000
     20 C18         -4.5020    -2.5770    -0.1580 ca         1 5DJ      -0.106000
     21 C19         -3.5920    -3.4430     0.4680 ca         1 5DJ      -0.114000
     22 C20         -2.2230    -3.1230     0.5000 ca         1 5DJ      -0.099000
     23 H1          -1.4980     0.4260     1.7290 ha         1 5DJ       0.119250
     24 H2          -2.5770     2.6570     1.8280 ha         1 5DJ       0.122000
     25 H3          -2.7160     4.6790     0.9120 ho         1 5DJ       0.466000
     26 H4          -0.2810     3.9240    -1.6030 ha         1 5DJ       0.122000
     27 H5           0.8000     1.6860    -1.7090 ha         1 5DJ       0.119250
     28 H6           2.1040    -1.9850    -1.5130 ha         1 5DJ       0.119250
     29 H7           4.5820    -1.8870    -1.5210 ha         1 5DJ       0.122000
     30 H8           6.3460     0.4790     0.5080 ho         1 5DJ       0.466000
     31 H9           4.4740     1.3340     1.3500 ha         1 5DJ       0.122000
     32 H10          2.0030     1.2370     1.3780 ha         1 5DJ       0.119250
     33 H11          0.3100    -2.5340    -0.0070 ha         1 5DJ       0.183000
     34 H12         -2.3320    -0.1700    -1.2210 ha         1 5DJ       0.120500
     35 H13         -4.7410    -0.7280    -1.2560 ha         1 5DJ       0.112500
     36 H14         -5.5610    -2.8240    -0.1840 ha         1 5DJ       0.111000
     37 H15         -3.9450    -4.3630     0.9290 ha         1 5DJ       0.112500
     38 H16         -1.5280    -3.8030     0.9900 ha         1 5DJ       0.120500
@<TRIPOS>BOND
     1     1     2 ar  
     2     1     7 ar  
     3     1    23 1   
     4     2     3 ar  
     5     2    24 1   
     6     3     4 1   
     7     3     5 ar  
     8     4    25 1   
     9     5     6 ar  
    10     5    26 1   
    11     6     7 ar  
    12     6    27 1   
    13     7     8 1   
    14     8     9 1   
    15     8    16 2   
    16     9    10 ar  
    17     9    15 ar  
    18    10    11 ar  
    19    10    28 1   
    20    11    12 ar  
    21    11    29 1   
    22    12    13 1   
    23    12    14 ar  
    24    13    30 1   
    25    14    15 ar  
    26    14    31 1   
    27    15    32 1   
    28    16    17 1   
    29    16    33 1   
    30    17    18 ar  
    31    17    22 ar  
    32    18    19 ar  
    33    18    34 1   
    34    19    20 ar  
    35    19    35 1   
    36    20    21 ar  
    37    20    36 1   
    38    21    22 ar  
    39    21    37 1   
    40    22    38 1   
@<TRIPOS>SUBSTRUCTURE
     1 5DJ         1 TEMP              0 ****  ****    0 ROOT
