@<TRIPOS>MOLECULE
5DL
   21    21     1     0     0
SMALL
No Charge or Current Charge


@<TRIPOS>ATOM
      1 N1          -3.3480    -0.9150    -0.9280 nc         1 5DL      -0.543800
      2 C3          -3.2620     0.7920     0.5410 cc         1 5DL       0.417400
      3 N2          -2.6250     0.1540    -0.4950 na         1 5DL      -0.002700
      4 C8           1.2170     0.5700    -0.9170 c3         1 5DL      -0.441400
      5 C7          -0.1090     0.2830    -0.2080 c3         1 5DL       0.218300
      6 C6          -1.3410     0.5240    -1.1190 c3         1 5DL       0.059600
      7 C5          -4.4060    -0.8860    -0.1290 cd         1 5DL       0.475900
      8 O10          3.8720     0.8040    -0.4730 o          1 5DL      -0.900833
      9 O11          2.3520     0.7890     1.4640 o          1 5DL      -0.900833
     10 O12          2.8020    -1.2930     0.2320 o          1 5DL      -0.900833
     11 O13         -0.1510     1.1340     0.9340 oh         1 5DL      -0.811000
     12 N4          -4.3950     0.1520     0.7880 nd         1 5DL      -0.763000
     13 H1          -2.8730     1.6750     1.0370 h5         1 5DL       0.058100
     14 H2           1.2930    -0.0380    -1.8260 hc         1 5DL       0.013700
     15 H3           1.2700     1.6220    -1.2200 hc         1 5DL       0.013700
     16 H4          -0.1140    -0.7710     0.1060 h1         1 5DL       0.035700
     17 H5          -1.2200    -0.0610    -2.0410 h1         1 5DL       0.042200
     18 H6          -1.3840     1.5820    -1.4050 h1         1 5DL       0.042200
     19 H7          -5.2200    -1.6010    -0.1760 h5         1 5DL       0.030100
     20 H10          0.8020     1.0930     1.2760 ho         1 5DL       0.547000
     21 P9           2.6610     0.1860     0.1350 p5         1 5DL       1.310500
@<TRIPOS>BOND
     1     1     3 1   
     2     1     7 2   
     3     2     3 1   
     4     2    12 2   
     5     2    13 1   
     6     3     6 1   
     7     4     5 1   
     8     4    14 1   
     9     4    15 1   
    10     4    21 1   
    11     5     6 1   
    12     5    11 1   
    13     5    16 1   
    14     6    17 1   
    15     6    18 1   
    16     7    12 1   
    17     7    19 1   
    18     8    21 1   
    19     9    21 1   
    20    10    21 1   
    21    11    20 1   
@<TRIPOS>SUBSTRUCTURE
     1 5DL         1 TEMP              0 ****  ****    0 ROOT
