@<TRIPOS>MOLECULE
5DL
   21    21     1     0     0
SMALL
abcg2


@<TRIPOS>ATOM
      1 N1          -3.0840    -0.9710    -0.6490 nc         1 5DL      -0.543800
      2 C3          -3.3420     0.9800     0.2910 cc         1 5DL       0.417400
      3 N2          -2.5800     0.2610    -0.5320 na         1 5DL      -0.002700
      4 C8           1.1880     0.5820    -0.9250 c3         1 5DL      -0.441400
      5 C7          -0.1330     0.1750    -0.2740 c3         1 5DL       0.218300
      6 C6          -1.3130     0.6220    -1.1280 c3         1 5DL       0.059600
      7 C5          -4.1530    -0.9270     0.1110 cd         1 5DL       0.475900
      8 O10          3.8650     0.8350    -0.4300 o          1 5DL      -0.900833
      9 O11          2.1960     0.7400     1.5280 o          1 5DL      -0.900833
     10 O12          2.7090    -1.3860     0.1790 o          1 5DL      -0.900833
     11 O13         -0.2810     0.7370     1.0020 oh         1 5DL      -0.811000
     12 N4          -4.3600     0.2610     0.7150 nd         1 5DL      -0.763000
     13 H1          -3.1300     2.0080     0.5420 h5         1 5DL       0.058100
     14 H2           1.2830     0.1030    -1.9050 hc         1 5DL       0.013700
     15 H3           1.1830     1.6640    -1.1040 hc         1 5DL       0.013700
     16 H4          -0.1580    -0.9270    -0.2270 h1         1 5DL       0.035700
     17 H5          -1.2650     0.1750    -2.1210 h1         1 5DL       0.042200
     18 H6          -1.3010     1.7070    -1.2450 h1         1 5DL       0.042200
     19 H7          -4.8060    -1.7780     0.2300 h5         1 5DL       0.030100
     20 H10          0.6650     0.7920     1.3650 ho         1 5DL       0.547000
     21 P9           2.6400     0.1400     0.1560 p5         1 5DL       1.310500
@<TRIPOS>BOND
     1     1     3 1   
     2     1     7 2   
     3     2     3 1   
     4     2    12 2   
     5     2    13 1   
     6     3     6 1   
     7     4     5 1   
     8     4    14 1   
     9     4    15 1   
    10     4    21 1   
    11     5     6 1   
    12     5    11 1   
    13     5    16 1   
    14     6    17 1   
    15     6    18 1   
    16     7    12 1   
    17     7    19 1   
    18     8    21 1   
    19     9    21 1   
    20    10    21 1   
    21    11    20 1   
@<TRIPOS>SUBSTRUCTURE
     1 5DL         1 TEMP              0 ****  ****    0 ROOT
