@<TRIPOS>MOLECULE
5DM
   40    40     1     0     0
SMALL
bcc


@<TRIPOS>ATOM
      1 O            1.9670    -3.0950    -0.3680 o          1 5DM      -0.827300
      2 C1           2.4640    -2.4520     0.5740 c          1 5DM       0.929600
      3 N1           1.0180    -0.5200    -0.0890 n7         1 5DM      -0.755200
      4 SD           5.0070     1.9680    -0.3820 ss         1 5DM      -0.368200
      5 CE           4.6780     3.7320    -0.1770 c3         1 5DM      -0.009000
      6 CA1          2.2090    -0.9240     0.6310 c3         1 5DM       0.031500
      7 CB1          3.4470    -0.2320     0.0500 c3         1 5DM      -0.055400
      8 CG1          3.4200     1.2860     0.1800 c3         1 5DM       0.029700
      9 C           -0.2030    -1.0090     0.5170 c3         1 5DM       0.172800
     10 N           -1.5280    -0.3330    -1.4290 n8         1 5DM      -0.861800
     11 CA          -1.4420    -0.2750     0.0190 c3         1 5DM       0.160500
     12 CB          -2.6810    -0.8270     0.7530 c3         1 5DM      -0.084100
     13 CG          -3.9320    -0.0680     0.4210 ca         1 5DM      -0.065300
     14 CZ          -6.2210     1.4090    -0.2480 ca         1 5DM      -0.142000
     15 CD1         -4.8420    -0.5460    -0.5200 ca         1 5DM      -0.129500
     16 CD2         -4.1880     1.1670     1.0190 ca         1 5DM      -0.129500
     17 CE1         -5.9780     0.1830    -0.8520 ca         1 5DM      -0.130500
     18 CE2         -5.3200     1.8990     0.6910 ca         1 5DM      -0.130500
     19 HN1          0.9700     0.4920    -0.1020 hn         1 5DM       0.310800
     20 HE           3.8420     4.0510    -0.7980 h1         1 5DM       0.047367
     21 HEA          4.4660     3.9730     0.8640 h1         1 5DM       0.047367
     22 HEB          5.5690     4.2760    -0.4860 h1         1 5DM       0.047367
     23 HA1          2.1440    -0.6500     1.7000 h1         1 5DM      -0.000300
     24 HB1          4.3250    -0.6160     0.5730 hc         1 5DM       0.066200
     25 HB1A         3.5520    -0.5080    -1.0030 hc         1 5DM       0.066200
     26 HG1          3.2540     1.5790     1.2200 h1         1 5DM       0.045200
     27 HG1A         2.6270     1.7310    -0.4250 h1         1 5DM       0.045200
     28 H           -0.3070    -2.0770     0.3030 h1         1 5DM       0.036200
     29 HA          -0.1850    -0.9140     1.6160 h1         1 5DM       0.036200
     30 HN          -1.5720    -1.3000    -1.7290 hn         1 5DM       0.332800
     31 HNA         -2.3930     0.0940    -1.7420 hn         1 5DM       0.332800
     32 HAA         -1.3400     0.7830     0.2970 h1         1 5DM       0.041700
     33 HB          -2.8020    -1.8830     0.4920 hc         1 5DM       0.054200
     34 HBA         -2.5020    -0.7850     1.8310 hc         1 5DM       0.054200
     35 HZ          -7.1050     1.9780    -0.5040 ha         1 5DM       0.121000
     36 HD1         -4.6640    -1.5050    -0.9910 ha         1 5DM       0.130500
     37 HD2         -3.4940     1.5590     1.7530 ha         1 5DM       0.130500
     38 HE1         -6.6740    -0.2100    -1.5820 ha         1 5DM       0.122500
     39 HE2         -5.5020     2.8530     1.1690 ha         1 5DM       0.122500
     40 OXT          3.2000    -2.9000     1.4770 o          1 5DM      -0.827300
@<TRIPOS>BOND
     1     1     2 1   
     2     2     6 1   
     3     2    40 1   
     4     3     6 1   
     5     3     9 1   
     6     3    19 1   
     7     4     5 1   
     8     4     8 1   
     9     5    20 1   
    10     5    21 1   
    11     5    22 1   
    12     6     7 1   
    13     6    23 1   
    14     7     8 1   
    15     7    24 1   
    16     7    25 1   
    17     8    26 1   
    18     8    27 1   
    19     9    11 1   
    20     9    28 1   
    21     9    29 1   
    22    10    11 1   
    23    10    30 1   
    24    10    31 1   
    25    11    12 1   
    26    11    32 1   
    27    12    13 1   
    28    12    33 1   
    29    12    34 1   
    30    13    15 ar  
    31    13    16 ar  
    32    14    17 ar  
    33    14    18 ar  
    34    14    35 1   
    35    15    17 ar  
    36    15    36 1   
    37    16    18 ar  
    38    16    37 1   
    39    17    38 1   
    40    18    39 1   
@<TRIPOS>SUBSTRUCTURE
     1 5DM         1 TEMP              0 ****  ****    0 ROOT
