@<TRIPOS>MOLECULE
5DM
   40    40     1     0     0
SMALL
No Charge or Current Charge


@<TRIPOS>ATOM
      1 O            2.6890    -3.0310    -0.6490 o          1 5DM      -0.722000
      2 C1           2.3860    -2.5170     0.4220 c          1 5DM       0.719000
      3 N1           0.9690    -0.3660     0.0290 n7         1 5DM      -0.810400
      4 SD           5.0850     1.9680    -0.7120 ss         1 5DM      -0.464000
      5 CE           4.9720     3.7180    -0.1240 c3         1 5DM       0.038900
      6 CA1          2.2700    -0.9380     0.5190 c3         1 5DM       0.031500
      7 CB1          3.4510    -0.2420    -0.2090 c3         1 5DM      -0.055400
      8 CG1          3.5930     1.2590     0.1210 c3         1 5DM       0.077600
      9 C           -0.2500    -0.8640     0.7200 c3         1 5DM       0.172800
     10 N           -1.5690    -0.2640    -1.3190 n8         1 5DM      -0.972200
     11 CA          -1.5420    -0.1880     0.1600 c3         1 5DM       0.160500
     12 CB          -2.8300    -0.7820     0.7830 c3         1 5DM      -0.084100
     13 CG          -4.1090    -0.0390     0.3980 ca         1 5DM      -0.065300
     14 CZ          -6.4810     1.3290    -0.2810 ca         1 5DM      -0.124000
     15 CD1         -5.0810    -0.6590    -0.4120 ca         1 5DM      -0.111500
     16 CD2         -4.3370     1.2690     0.8700 ca         1 5DM      -0.111500
     17 CE1         -6.2630     0.0240    -0.7520 ca         1 5DM      -0.112500
     18 CE2         -5.5190     1.9520     0.5300 ca         1 5DM      -0.112500
     19 HN1          0.9970     0.6510     0.1470 hn         1 5DM       0.366000
     20 HE           4.0250     4.1620    -0.4570 h1         1 5DM       0.047367
     21 HEA          5.0190     3.7460     0.9720 h1         1 5DM       0.047367
     22 HEB          5.8060     4.3010    -0.5350 h1         1 5DM       0.047367
     23 HA1          2.3690    -0.6900     1.5840 h1         1 5DM      -0.000300
     24 HB1          4.3810    -0.7450     0.0800 hc         1 5DM       0.066200
     25 HB1A         3.3450    -0.3700    -1.2930 hc         1 5DM       0.066200
     26 HG1          3.6930     1.3920     1.2060 h1         1 5DM       0.045200
     27 HG1A         2.7040     1.8060    -0.2180 h1         1 5DM       0.045200
     28 H           -0.3380    -1.9520     0.5930 h1         1 5DM       0.036200
     29 HA          -0.1860    -0.6620     1.7990 h1         1 5DM       0.036200
     30 HN          -0.5850    -0.2200    -1.6130 hn         1 5DM       0.388000
     31 HNA         -1.8450    -1.2120    -1.5890 hn         1 5DM       0.388000
     32 HAA         -1.4850     0.8770     0.4280 h1         1 5DM       0.041700
     33 HB          -2.9050    -1.8420     0.5130 hc         1 5DM       0.054200
     34 HBA         -2.7270    -0.7620     1.8750 hc         1 5DM       0.054200
     35 HZ          -7.3960     1.8570    -0.5440 ha         1 5DM       0.103000
     36 HD1         -4.9220    -1.6700    -0.7810 ha         1 5DM       0.112500
     37 HD2         -3.5990     1.7570     1.5030 ha         1 5DM       0.112500
     38 HE1         -7.0080    -0.4600    -1.3790 ha         1 5DM       0.104500
     39 HE2         -5.6880     2.9620     0.8970 ha         1 5DM       0.104500
     40 OXT          2.1970    -3.1720     1.4400 o          1 5DM      -0.722000
@<TRIPOS>BOND
     1     1     2 1   
     2     2     6 1   
     3     2    40 1   
     4     3     6 1   
     5     3     9 1   
     6     3    19 1   
     7     4     5 1   
     8     4     8 1   
     9     5    20 1   
    10     5    21 1   
    11     5    22 1   
    12     6     7 1   
    13     6    23 1   
    14     7     8 1   
    15     7    24 1   
    16     7    25 1   
    17     8    26 1   
    18     8    27 1   
    19     9    11 1   
    20     9    28 1   
    21     9    29 1   
    22    10    11 1   
    23    10    30 1   
    24    10    31 1   
    25    11    12 1   
    26    11    32 1   
    27    12    13 1   
    28    12    33 1   
    29    12    34 1   
    30    13    15 ar  
    31    13    16 ar  
    32    14    17 ar  
    33    14    18 ar  
    34    14    35 1   
    35    15    17 ar  
    36    15    36 1   
    37    16    18 ar  
    38    16    37 1   
    39    17    38 1   
    40    18    39 1   
@<TRIPOS>SUBSTRUCTURE
     1 5DM         1 TEMP              0 ****  ****    0 ROOT
