@<TRIPOS>MOLECULE
5DN
   29    31     1     0     0
SMALL
abcg2


@<TRIPOS>ATOM
      1 O01         -3.7840    -3.1050    -0.9490 o          1 5DN      -0.703500
      2 C02         -4.0160    -2.1400    -0.2030 c          1 5DN       0.715600
      3 O03         -5.0210    -1.9470     0.5030 o          1 5DN      -0.703500
      4 C04         -2.9090    -1.0880    -0.1150 ca         1 5DN      -0.079600
      5 C05         -1.6080    -1.5150    -0.1390 ca         1 5DN      -0.151000
      6 C06         -0.5410    -0.5990     0.0010 cp         1 5DN       0.395500
      7 C07          0.8690    -1.0550     0.0200 cp         1 5DN      -0.119500
      8 C08          1.2110    -2.3800     0.2820 ca         1 5DN      -0.081000
      9 C09          2.5410    -2.7750     0.2970 ca         1 5DN      -0.125000
     10 C10          3.5540    -1.8620     0.0490 ca         1 5DN      -0.096000
     11 C11          3.2060    -0.5430    -0.2080 ca         1 5DN      -0.027900
     12 BR           4.5700     0.7210    -0.5510 br         1 5DN      -0.130100
     13 C13          1.8860    -0.1300    -0.2220 ca         1 5DN      -0.053000
     14 N14         -0.7450     0.6900     0.1020 nb         1 5DN      -0.689000
     15 C15         -2.0090     1.1480     0.0850 ca         1 5DN       0.225000
     16 C16         -2.2080     2.5470     0.1580 ca         1 5DN       0.172000
     17 F17         -1.1210     3.3220     0.2390 f          1 5DN      -0.180000
     18 C18         -3.4460     3.1110     0.1410 ca         1 5DN      -0.165000
     19 C19         -4.5710     2.2680     0.0520 ca         1 5DN      -0.134000
     20 C20         -4.4370     0.9080    -0.0130 ca         1 5DN      -0.056000
     21 C21         -3.1530     0.3100     0.0020 ca         1 5DN      -0.033000
     22 H2          -1.4090    -2.5690    -0.2750 ha         1 5DN       0.137000
     23 H3           0.4490    -3.1180     0.4930 ha         1 5DN       0.130000
     24 H4           2.7940    -3.8040     0.5100 ha         1 5DN       0.109000
     25 H5           4.5890    -2.1780     0.0620 ha         1 5DN       0.116000
     26 H6           1.6270     0.9010    -0.4220 ha         1 5DN       0.154000
     27 H7          -3.5610     4.1850     0.1940 ha         1 5DN       0.111000
     28 H8          -5.5560     2.7140     0.0370 ha         1 5DN       0.102000
     29 H9          -5.3120     0.2810    -0.0730 ha         1 5DN       0.160000
@<TRIPOS>BOND
     1     1     2 1   
     2     2     3 1   
     3     2     4 1   
     4     4     5 ar  
     5     4    21 ar  
     6     5     6 ar  
     7     5    22 1   
     8     6     7 1   
     9     6    14 ar  
    10     7     8 ar  
    11     7    13 ar  
    12     8     9 ar  
    13     8    23 1   
    14     9    10 ar  
    15     9    24 1   
    16    10    11 ar  
    17    10    25 1   
    18    11    12 1   
    19    11    13 ar  
    20    13    26 1   
    21    14    15 ar  
    22    15    16 ar  
    23    15    21 ar  
    24    16    17 1   
    25    16    18 ar  
    26    18    19 ar  
    27    18    27 1   
    28    19    20 ar  
    29    19    28 1   
    30    20    21 ar  
    31    20    29 1   
@<TRIPOS>SUBSTRUCTURE
     1 5DN         1 TEMP              0 ****  ****    0 ROOT
