@<TRIPOS>MOLECULE
5DN
   29    31     1     0     0
SMALL
No Charge or Current Charge


@<TRIPOS>ATOM
      1 O01         -4.0570    -2.7990    -1.2490 o          1 5DN      -0.703500
      2 C02         -4.0650    -2.0580    -0.2760 c          1 5DN       0.715600
      3 O03         -4.8890    -2.1330     0.6240 o          1 5DN      -0.703500
      4 C04         -2.9400    -1.0590    -0.1400 ca         1 5DN      -0.079600
      5 C05         -1.6110    -1.5240    -0.1310 ca         1 5DN      -0.151000
      6 C06         -0.5330    -0.6220     0.0090 cp         1 5DN       0.395500
      7 C07          0.9060    -1.0720     0.0280 cp         1 5DN      -0.119500
      8 C08          1.2700    -2.3990     0.3890 ca         1 5DN      -0.081000
      9 C09          2.6140    -2.8100     0.4040 ca         1 5DN      -0.125000
     10 C10          3.6320    -1.9080     0.0600 ca         1 5DN      -0.096000
     11 C11          3.3030    -0.5920    -0.2940 ca         1 5DN      -0.027900
     12 Br           4.6870     0.6430    -0.7600 br         1 5DN      -0.130100
     13 C13          1.9600    -0.1770    -0.3090 ca         1 5DN      -0.053000
     14 N14         -0.7570     0.7050     0.1200 nb         1 5DN      -0.689000
     15 C15         -2.0250     1.1970     0.1060 ca         1 5DN       0.225000
     16 C16         -2.2520     2.5950     0.2180 ca         1 5DN       0.172000
     17 F17         -1.2100     3.4540     0.3480 f          1 5DN      -0.180000
     18 C18         -3.5510     3.1270     0.1950 ca         1 5DN      -0.165000
     19 C19         -4.6530     2.2750     0.0550 ca         1 5DN      -0.134000
     20 C20         -4.4580     0.8890    -0.0570 ca         1 5DN      -0.056000
     21 C21         -3.1540     0.3390    -0.0250 ca         1 5DN      -0.033000
     22 H2          -1.4220    -2.5870    -0.2430 ha         1 5DN       0.137000
     23 H3           0.5100    -3.1200     0.6790 ha         1 5DN       0.130000
     24 H4           2.8660    -3.8300     0.6860 ha         1 5DN       0.109000
     25 H5           4.6720    -2.2280     0.0720 ha         1 5DN       0.116000
     26 H6           1.7350     0.8490    -0.5920 ha         1 5DN       0.154000
     27 H7          -3.6980     4.2010     0.2810 ha         1 5DN       0.111000
     28 H8          -5.6600     2.6850     0.0300 ha         1 5DN       0.102000
     29 H9          -5.3330     0.2560    -0.1720 ha         1 5DN       0.160000
@<TRIPOS>BOND
     1     1     2 1   
     2     2     3 1   
     3     2     4 1   
     4     4     5 ar  
     5     4    21 ar  
     6     5     6 ar  
     7     5    22 1   
     8     6     7 1   
     9     6    14 ar  
    10     7     8 ar  
    11     7    13 ar  
    12     8     9 ar  
    13     8    23 1   
    14     9    10 ar  
    15     9    24 1   
    16    10    11 ar  
    17    10    25 1   
    18    11    12 1   
    19    11    13 ar  
    20    13    26 1   
    21    14    15 ar  
    22    15    16 ar  
    23    15    21 ar  
    24    16    17 1   
    25    16    18 ar  
    26    18    19 ar  
    27    18    27 1   
    28    19    20 ar  
    29    19    28 1   
    30    20    21 ar  
    31    20    29 1   
@<TRIPOS>SUBSTRUCTURE
     1 5DN         1 TEMP              0 ****  ****    0 ROOT
