@<TRIPOS>MOLECULE
5DP
   91    93     1     0     0
SMALL
No Charge or Current Charge


@<TRIPOS>ATOM
      1 C1           3.3300    -3.8270    -0.2380 c6         1 5DP       0.123300
      2 C2           3.1610    -2.9160    -1.5030 c6         1 5DP       0.144300
      3 C3           4.4600     0.7510     0.6290 c6         1 5DP       0.165300
      4 O1           5.0580    -2.2450     0.6070 os         1 5DP      -0.433000
      5 O14         -3.5090    -1.1370    -3.1220 o          1 5DP      -0.618100
      6 C15         -3.6140    -0.5480    -2.0560 c          1 5DP       0.599100
      7 C16         -4.9490     0.0100    -1.5510 c3         1 5DP      -0.158400
      8 C17         -5.8830    -1.1160    -1.0460 c3         1 5DP      -0.064400
      9 C18         -7.2380    -0.5860    -0.5270 c3         1 5DP      -0.097400
     10 C19         -8.1700    -1.7070    -0.0250 c3         1 5DP       0.105000
     11 N2          -9.4650    -1.1900     0.4650 n          1 5DP      -0.387400
     12 C23        -10.5750    -1.1210    -0.3680 c          1 5DP       0.566000
     13 O15        -10.5460    -1.0810    -1.5890 o          1 5DP      -0.501500
     14 C22        -11.7420    -0.8650     0.5980 c5         1 5DP      -0.169400
     15 C21        -11.0340    -0.1710     1.8010 c5         1 5DP      -0.169400
     16 C20         -9.6550    -0.8470     1.7980 c          1 5DP       0.566000
     17 O16         -8.9540    -1.2030     2.7330 o          1 5DP      -0.501500
     18 N1          -2.5360    -0.3140    -1.2350 ns         1 5DP      -0.496900
     19 C14         -1.1470    -0.6840    -1.5520 c3         1 5DP       0.093000
     20 C13         -0.4930     0.2430    -2.6010 c3         1 5DP       0.138600
     21 O13         -0.4530     1.5800    -2.0680 os         1 5DP      -0.462000
     22 C12          0.2010     2.5420    -2.9210 c3         1 5DP       0.162600
     23 C11          0.2520     3.9140    -2.2060 c3         1 5DP       0.156600
     24 O12          1.1220     3.8070    -1.0630 os         1 5DP      -0.443000
     25 C10          1.4200     5.0530    -0.4010 c3         1 5DP       0.160600
     26 C9           2.2760     4.7490     0.8500 c3         1 5DP       0.161600
     27 C6           4.3650     3.5960     1.4490 c6         1 5DP       0.355300
     28 C5           5.6820     3.0220     0.8220 c6         1 5DP       0.123300
     29 O10          6.6340     2.5600     1.8170 oh         1 5DP      -0.692000
     30 C4           5.3290     1.8320    -0.1220 c6         1 5DP       0.159300
     31 O9           6.5660     1.3010    -0.6350 oh         1 5DP      -0.714000
     32 C7           3.2350     1.4410     1.3020 c6         1 5DP       0.163300
     33 C8           2.3980     0.4510     2.1770 c3         1 5DP       0.163600
     34 O7           1.3200     1.0850     2.8970 oh         1 5DP      -0.716000
     35 O6           3.6610     2.5480     2.1470 os         1 5DP      -0.453000
     36 O8           4.0020    -0.3180    -0.2530 os         1 5DP      -0.524000
     37 C29          4.9570    -1.3700    -0.5420 c6         1 5DP       0.361300
     38 C30          3.8260    -2.9410     0.9540 c6         1 5DP       0.171300
     39 C31          4.0630    -3.7630     2.2630 c3         1 5DP       0.169600
     40 O3           4.2740    -4.8730    -0.5350 oh         1 5DP      -0.696000
     41 O4           2.1180    -1.9450    -1.2960 oh         1 5DP      -0.667000
     42 C28          4.5180    -2.1920    -1.8100 c6         1 5DP       0.112300
     43 O5           5.5260    -3.1710    -2.1830 oh         1 5DP      -0.693000
     44 H1           2.3540    -4.2640     0.0230 h1         1 5DP       0.047700
     45 H2           2.8990    -3.5540    -2.3600 h1         1 5DP       0.076700
     46 H3           5.0670     0.3060     1.4320 h1         1 5DP       0.077700
     47 HO2          4.6730    -3.5540     4.1270 ho         1 5DP       0.509000
     48 H16         -4.7740     0.7120    -0.7260 hc         1 5DP       0.056700
     49 H16A        -5.4470     0.5290    -2.3780 hc         1 5DP       0.056700
     50 H17         -6.0620    -1.8290    -1.8610 hc         1 5DP       0.056200
     51 H17A        -5.3790    -1.6690    -0.2430 hc         1 5DP       0.056200
     52 H18         -7.0610     0.1240     0.2900 hc         1 5DP       0.049200
     53 H18A        -7.7420    -0.0340    -1.3300 hc         1 5DP       0.049200
     54 H19         -8.3540    -2.4180    -0.8420 h1         1 5DP       0.067200
     55 H19A        -7.6700    -2.2630     0.7790 h1         1 5DP       0.067200
     56 H22        -12.5540    -0.3060     0.1210 hc         1 5DP       0.086200
     57 H22A       -12.1170    -1.8400     0.9290 hc         1 5DP       0.086200
     58 H21        -10.8860     0.8860     1.5510 hc         1 5DP       0.086200
     59 H21A       -11.5310    -0.2550     2.7730 hc         1 5DP       0.086200
     60 HN1         -2.7130     0.2080    -0.3860 hn         1 5DP       0.319500
     61 H14         -0.5530    -0.6560    -0.6300 h1         1 5DP       0.075200
     62 H14A        -1.1280    -1.7160    -1.9260 h1         1 5DP       0.075200
     63 H13          0.5210    -0.1180    -2.8150 h1         1 5DP       0.031700
     64 H13A        -1.0710     0.2130    -3.5350 h1         1 5DP       0.031700
     65 H12          1.2250     2.2220    -3.1600 h1         1 5DP       0.037700
     66 H12A        -0.3490     2.6520    -3.8650 h1         1 5DP       0.037700
     67 H11          0.6370     4.6620    -2.9110 h1         1 5DP       0.026700
     68 H11A        -0.7600     4.2150    -1.9040 h1         1 5DP       0.026700
     69 H10          1.9690     5.7300    -1.0690 h1         1 5DP       0.027200
     70 H10A         0.4940     5.5540    -0.0870 h1         1 5DP       0.027200
     71 H9           2.4690     5.6820     1.3970 h1         1 5DP       0.048700
     72 H9A          1.7090     4.0790     1.5090 h1         1 5DP       0.048700
     73 H6           4.6250     4.3940     2.1610 h2         1 5DP       0.064700
     74 H5           6.1390     3.8200     0.2170 h1         1 5DP       0.046700
     75 HO10         6.8160     3.3120     2.4290 ho         1 5DP       0.503000
     76 H4           4.7230     2.2230    -0.9530 h1         1 5DP       0.066700
     77 HO9          7.2040     1.4560     0.1040 ho         1 5DP       0.505000
     78 H7           2.5690     1.8240     0.5160 h1         1 5DP       0.083700
     79 H8           1.9910    -0.3230     1.5140 h1         1 5DP       0.041700
     80 H8A          3.0820    -0.0460     2.8800 h1         1 5DP       0.041700
     81 HO7          0.9340     0.4060     3.4980 ho         1 5DP       0.503000
     82 H29          5.9460    -0.9440    -0.7520 h2         1 5DP       0.085700
     83 H30          3.0510    -2.1990     1.1860 h1         1 5DP       0.054700
     84 H31          4.8420    -4.5120     2.0640 h1         1 5DP       0.042700
     85 H31A         3.1380    -4.3090     2.4930 h1         1 5DP       0.042700
     86 HO3          4.9400    -4.4240    -1.1280 ho         1 5DP       0.507000
     87 HO4          2.5740    -1.1610    -0.8940 ho         1 5DP       0.469000
     88 H28          4.3580    -1.4900    -2.6420 h1         1 5DP       0.055700
     89 HO5          6.2220    -2.6970    -2.7010 ho         1 5DP       0.510000
     90 O2           4.4440    -2.9420     3.3890 oh         1 5DP      -0.732000
     91 O11          3.5150     4.1430     0.4230 os         1 5DP      -0.485000
@<TRIPOS>BOND
     1     1     2 1   
     2     1    38 1   
     3     1    40 1   
     4     1    44 1   
     5     2    41 1   
     6     2    42 1   
     7     2    45 1   
     8     3    30 1   
     9     3    32 1   
    10     3    36 1   
    11     3    46 1   
    12     4    37 1   
    13     4    38 1   
    14     5     6 2   
    15     6     7 1   
    16     6    18 1   
    17     7     8 1   
    18     7    48 1   
    19     7    49 1   
    20     8     9 1   
    21     8    50 1   
    22     8    51 1   
    23     9    10 1   
    24     9    52 1   
    25     9    53 1   
    26    10    11 1   
    27    10    54 1   
    28    10    55 1   
    29    11    12 1   
    30    11    16 1   
    31    12    13 2   
    32    12    14 1   
    33    14    15 1   
    34    14    56 1   
    35    14    57 1   
    36    15    16 1   
    37    15    58 1   
    38    15    59 1   
    39    16    17 2   
    40    18    19 1   
    41    18    60 1   
    42    19    20 1   
    43    19    61 1   
    44    19    62 1   
    45    20    21 1   
    46    20    63 1   
    47    20    64 1   
    48    21    22 1   
    49    22    23 1   
    50    22    65 1   
    51    22    66 1   
    52    23    24 1   
    53    23    67 1   
    54    23    68 1   
    55    24    25 1   
    56    25    26 1   
    57    25    69 1   
    58    25    70 1   
    59    26    71 1   
    60    26    72 1   
    61    26    91 1   
    62    27    28 1   
    63    27    35 1   
    64    27    73 1   
    65    27    91 1   
    66    28    29 1   
    67    28    30 1   
    68    28    74 1   
    69    29    75 1   
    70    30    31 1   
    71    30    76 1   
    72    31    77 1   
    73    32    33 1   
    74    32    35 1   
    75    32    78 1   
    76    33    34 1   
    77    33    79 1   
    78    33    80 1   
    79    34    81 1   
    80    36    37 1   
    81    37    42 1   
    82    37    82 1   
    83    38    39 1   
    84    38    83 1   
    85    39    84 1   
    86    39    85 1   
    87    39    90 1   
    88    40    86 1   
    89    41    87 1   
    90    42    43 1   
    91    42    88 1   
    92    43    89 1   
    93    47    90 1   
@<TRIPOS>SUBSTRUCTURE
     1 5DP         1 TEMP              0 ****  ****    0 ROOT
