@<TRIPOS>MOLECULE
5DP
   91    93     1     0     0
SMALL
abcg2


@<TRIPOS>ATOM
      1 C1           2.9700    -3.0310    -1.7700 c6         1 5DP       0.123300
      2 C2           3.9730    -2.0600    -2.4210 c6         1 5DP       0.144300
      3 C3           4.5840     0.7990     0.7810 c6         1 5DP       0.165300
      4 O1           3.8460    -2.3940     0.4140 os         1 5DP      -0.433000
      5 O14         -2.8500    -2.1420    -0.1460 o          1 5DP      -0.618100
      6 C15         -3.1680    -0.9600    -0.1250 c          1 5DP       0.599100
      7 C16         -4.5980    -0.5130    -0.3430 c3         1 5DP      -0.158400
      8 C17         -5.6120    -1.3620     0.4130 c3         1 5DP      -0.064400
      9 C18         -7.0400    -0.9540     0.0780 c3         1 5DP      -0.097400
     10 C19         -8.0540    -1.7780     0.8600 c3         1 5DP       0.105000
     11 N2          -9.4220    -1.4090     0.5530 n          1 5DP      -0.387400
     12 C23        -10.1510    -1.9820    -0.4670 c          1 5DP       0.566000
     13 O15         -9.7350    -2.8520    -1.1920 o          1 5DP      -0.501500
     14 C22        -11.5130    -1.3380    -0.4960 c5         1 5DP      -0.169400
     15 C21        -11.4800    -0.2960     0.6130 c5         1 5DP      -0.169400
     16 C20        -10.1050    -0.4140     1.2180 c          1 5DP       0.566000
     17 O16         -9.6460     0.2310     2.1290 o          1 5DP      -0.501500
     18 N1          -2.2860     0.0350     0.0720 ns         1 5DP      -0.496900
     19 C14         -0.8580    -0.1540     0.1610 c3         1 5DP       0.093000
     20 C13         -0.1470     0.1480    -1.1430 c3         1 5DP       0.138600
     21 O13         -0.3320     1.5040    -1.4500 os         1 5DP      -0.462000
     22 C12          0.4300     1.9680    -2.5370 c3         1 5DP       0.162600
     23 C11          0.7380     3.4300    -2.3330 c3         1 5DP       0.156600
     24 O12          1.5240     3.5530    -1.1790 os         1 5DP      -0.443000
     25 C10          1.8930     4.8670    -0.8630 c3         1 5DP       0.160600
     26 C9           2.6640     4.8460     0.4330 c3         1 5DP       0.161600
     27 C6           4.4630     3.6100     1.3800 c6         1 5DP       0.355300
     28 C5           5.7940     2.9940     0.9440 c6         1 5DP       0.123300
     29 O10          6.5330     2.5730     2.0610 oh         1 5DP      -0.692000
     30 C4           5.5100     1.7760     0.0680 c6         1 5DP       0.159300
     31 O9           6.6830     1.0830    -0.2790 oh         1 5DP      -0.714000
     32 C7           3.3330     1.5080     1.3150 c6         1 5DP       0.163300
     33 C8           2.5580     0.6110     2.2560 c3         1 5DP       0.163600
     34 O7           1.3720     1.2680     2.6400 oh         1 5DP      -0.716000
     35 O6           3.6810     2.6690     2.0520 os         1 5DP      -0.453000
     36 O8           4.1630    -0.1840    -0.1460 os         1 5DP      -0.524000
     37 C29          4.7450    -1.4630    -0.1020 c6         1 5DP       0.361300
     38 C30          2.6630    -2.5810    -0.3500 c6         1 5DP       0.171300
     39 C31          1.7680    -3.5480     0.3940 c3         1 5DP       0.169600
     40 O3           3.4430    -4.3520    -1.7270 oh         1 5DP      -0.696000
     41 O4           3.3340    -0.8430    -2.7450 oh         1 5DP      -0.667000
     42 C28          5.1940    -1.8240    -1.5260 c6         1 5DP       0.112300
     43 O5           5.9750    -2.9920    -1.5180 oh         1 5DP      -0.693000
     44 H1           2.0350    -2.9630    -2.3470 h1         1 5DP       0.047700
     45 H2           4.3170    -2.4940    -3.3680 h1         1 5DP       0.076700
     46 H3           5.1180     0.3250     1.6150 h1         1 5DP       0.077700
     47 HO2          0.6800    -3.5050     1.9970 ho         1 5DP       0.509000
     48 H16         -4.7220     0.5400    -0.0800 hc         1 5DP       0.056700
     49 H16A        -4.7930    -0.5850    -1.4190 hc         1 5DP       0.056700
     50 H17         -5.4640    -2.4160     0.1680 hc         1 5DP       0.056200
     51 H17A        -5.4440    -1.2620     1.4900 hc         1 5DP       0.056200
     52 H18         -7.1860     0.1060     0.3010 hc         1 5DP       0.049200
     53 H18A        -7.2150    -1.0810    -0.9940 hc         1 5DP       0.049200
     54 H19         -7.9380    -2.8400     0.6410 h1         1 5DP       0.067200
     55 H19A        -7.9070    -1.6510     1.9330 h1         1 5DP       0.067200
     56 H22        -11.6880    -0.9100    -1.4830 hc         1 5DP       0.086200
     57 H22A       -12.2730    -2.1040    -0.3400 hc         1 5DP       0.086200
     58 H21        -11.6250     0.7210     0.2480 hc         1 5DP       0.086200
     59 H21A       -12.2280    -0.4680     1.3870 hc         1 5DP       0.086200
     60 HN1         -2.6230     0.9820     0.0400 hn         1 5DP       0.319500
     61 H14         -0.4580     0.4930     0.9440 h1         1 5DP       0.075200
     62 H14A        -0.6450    -1.1810     0.4570 h1         1 5DP       0.075200
     63 H13          0.9220    -0.0720    -1.0180 h1         1 5DP       0.031700
     64 H13A        -0.5210    -0.5070    -1.9420 h1         1 5DP       0.031700
     65 H12          1.3740     1.4120    -2.6210 h1         1 5DP       0.037700
     66 H12A        -0.1030     1.8370    -3.4870 h1         1 5DP       0.037700
     67 H11          1.2620     3.8050    -3.2240 h1         1 5DP       0.026700
     68 H11A        -0.1930     4.0100    -2.2450 h1         1 5DP       0.026700
     69 H10          2.5010     5.3160    -1.6620 h1         1 5DP       0.027200
     70 H10A         1.0140     5.5140    -0.7310 h1         1 5DP       0.027200
     71 H9           2.8930     5.8760     0.7350 h1         1 5DP       0.048700
     72 H9A          2.0450     4.4000     1.2170 h1         1 5DP       0.048700
     73 H6           4.6340     4.4090     2.1170 h2         1 5DP       0.064700
     74 H5           6.3480     3.7380     0.3550 h1         1 5DP       0.046700
     75 HO10         6.7940     3.3480     2.5670 ho         1 5DP       0.503000
     76 H4           4.9840     2.1290    -0.8280 h1         1 5DP       0.066700
     77 HO9          7.0980     1.5320    -1.0210 ho         1 5DP       0.505000
     78 H7           2.6950     1.7760     0.4620 h1         1 5DP       0.083700
     79 H8           2.3440    -0.3380     1.7560 h1         1 5DP       0.041700
     80 H8A          3.1880     0.3790     3.1270 h1         1 5DP       0.041700
     81 HO7          0.8740     0.6730     3.2070 ho         1 5DP       0.503000
     82 H29          5.6060    -1.4710     0.5740 h2         1 5DP       0.085700
     83 H30          2.1110    -1.6350    -0.4230 h1         1 5DP       0.054700
     84 H31          2.3230    -4.4600     0.6430 h1         1 5DP       0.042700
     85 H31A         0.9500    -3.8400    -0.2780 h1         1 5DP       0.042700
     86 HO3          3.7330    -4.6070    -2.6080 ho         1 5DP       0.507000
     87 HO4          3.3880    -0.2550    -1.9820 ho         1 5DP       0.469000
     88 H28          5.7600    -0.9730    -1.9230 h1         1 5DP       0.055700
     89 HO5          6.8350    -2.7730    -1.1460 ho         1 5DP       0.510000
     90 O2           1.2790    -2.9030     1.5470 oh         1 5DP      -0.732000
     91 O11          3.8540     4.1080     0.2340 os         1 5DP      -0.485000
@<TRIPOS>BOND
     1     1     2 1   
     2     1    38 1   
     3     1    40 1   
     4     1    44 1   
     5     2    41 1   
     6     2    42 1   
     7     2    45 1   
     8     3    30 1   
     9     3    32 1   
    10     3    36 1   
    11     3    46 1   
    12     4    37 1   
    13     4    38 1   
    14     5     6 2   
    15     6     7 1   
    16     6    18 1   
    17     7     8 1   
    18     7    48 1   
    19     7    49 1   
    20     8     9 1   
    21     8    50 1   
    22     8    51 1   
    23     9    10 1   
    24     9    52 1   
    25     9    53 1   
    26    10    11 1   
    27    10    54 1   
    28    10    55 1   
    29    11    12 1   
    30    11    16 1   
    31    12    13 2   
    32    12    14 1   
    33    14    15 1   
    34    14    56 1   
    35    14    57 1   
    36    15    16 1   
    37    15    58 1   
    38    15    59 1   
    39    16    17 2   
    40    18    19 1   
    41    18    60 1   
    42    19    20 1   
    43    19    61 1   
    44    19    62 1   
    45    20    21 1   
    46    20    63 1   
    47    20    64 1   
    48    21    22 1   
    49    22    23 1   
    50    22    65 1   
    51    22    66 1   
    52    23    24 1   
    53    23    67 1   
    54    23    68 1   
    55    24    25 1   
    56    25    26 1   
    57    25    69 1   
    58    25    70 1   
    59    26    71 1   
    60    26    72 1   
    61    26    91 1   
    62    27    28 1   
    63    27    35 1   
    64    27    73 1   
    65    27    91 1   
    66    28    29 1   
    67    28    30 1   
    68    28    74 1   
    69    29    75 1   
    70    30    31 1   
    71    30    76 1   
    72    31    77 1   
    73    32    33 1   
    74    32    35 1   
    75    32    78 1   
    76    33    34 1   
    77    33    79 1   
    78    33    80 1   
    79    34    81 1   
    80    36    37 1   
    81    37    42 1   
    82    37    82 1   
    83    38    39 1   
    84    38    83 1   
    85    39    84 1   
    86    39    85 1   
    87    39    90 1   
    88    40    86 1   
    89    41    87 1   
    90    42    43 1   
    91    42    88 1   
    92    43    89 1   
    93    47    90 1   
@<TRIPOS>SUBSTRUCTURE
     1 5DP         1 TEMP              0 ****  ****    0 ROOT
