@<TRIPOS>MOLECULE
5DR
   49    51     1     0     0
SMALL
bcc


@<TRIPOS>ATOM
      1 N1           4.8830    -0.5250    -1.5700 nb         1 5DR      -0.869000
      2 C2           5.6310     0.3730    -0.9320 ca         1 5DR       0.950900
      3 N3           5.3520     0.9510     0.2410 nb         1 5DR      -0.819000
      4 C4           4.2120     0.6000     0.8240 ca         1 5DR       0.547600
      5 C5           3.3410    -0.3260     0.2550 ca         1 5DR      -0.344600
      6 C6           3.7420    -0.8800    -0.9910 ca         1 5DR       0.773200
      7 CAA          2.9850     2.5040     1.8810 c3         1 5DR      -0.084100
      8 CAB         -0.4280    -3.6790    -1.8930 c3         1 5DR       0.120700
      9 NAC          6.7710     0.7550    -1.5410 nv         1 5DR      -0.952500
     10 NAD          2.9790    -1.7880    -1.6110 nv         1 5DR      -0.969500
     11 CAE          1.0480    -1.1170     1.2470 c1         1 5DR      -0.152100
     12 CAF          2.1130    -0.7220     0.8380 cg         1 5DR      -0.088000
     13 CAG         -6.3720     2.8190     0.9760 ca         1 5DR      -0.127000
     14 CAH         -6.6990     1.6620     0.2800 ca         1 5DR      -0.128500
     15 CAI         -5.0560     3.0290     1.3680 ca         1 5DR      -0.128500
     16 CAJ         -5.7220     0.7230    -0.0160 ca         1 5DR      -0.120500
     17 CAK         -4.0790     2.0910     1.0680 ca         1 5DR      -0.120500
     18 CAL         -3.3700    -0.7810    -1.1420 ca         1 5DR      -0.078000
     19 CAM         -2.3920    -1.7210    -1.4390 ca         1 5DR      -0.215000
     20 CAN         -2.3280    -0.3570     0.9600 ca         1 5DR      -0.077000
     21 CAO          3.8710     1.2810     2.1160 c3         1 5DR      -0.134700
     22 CAP         -0.2590    -1.5750     1.7050 c3         1 5DR       0.078000
     23 OAS         -0.3800    -2.8650    -0.7360 os         1 5DR      -0.321900
     24 CAV         -4.3960     0.9210     0.3730 cp         1 5DR      -0.027000
     25 CAW         -3.3580    -0.0790     0.0580 cp         1 5DR      -0.067000
     26 CAX         -1.3440    -1.2910     0.6930 ca         1 5DR      -0.111300
     27 CAZ         -1.3730    -1.9790    -0.5280 ca         1 5DR       0.146100
     28 HAA          2.7540     2.9940     2.8260 hc         1 5DR       0.038033
     29 HAAA         3.4810     3.2310     1.2390 hc         1 5DR       0.038033
     30 HAAB         2.0420     2.2250     1.4110 hc         1 5DR       0.038033
     31 HAB         -0.3590    -3.0910    -2.8110 h1         1 5DR       0.041700
     32 HABA         0.4300    -4.3440    -1.8380 h1         1 5DR       0.041700
     33 HABB        -1.3400    -4.2810    -1.9260 h1         1 5DR       0.041700
     34 HNAC         7.1160     0.2120    -2.3130 hn         1 5DR       0.438300
     35 HNAA         7.4430     1.2900    -1.0190 hn         1 5DR       0.438300
     36 HNAD         3.2440    -2.1320    -2.5170 hn         1 5DR       0.448300
     37 HNAB         2.0800    -2.0460    -1.2420 hn         1 5DR       0.448300
     38 HAG         -7.1350     3.5490     1.2100 ha         1 5DR       0.131000
     39 HAH         -7.7220     1.4830    -0.0240 ha         1 5DR       0.130500
     40 HAI         -4.7860     3.9300     1.9030 ha         1 5DR       0.130500
     41 HAJ         -6.0010    -0.1850    -0.5380 ha         1 5DR       0.131000
     42 HAK         -3.0550     2.2810     1.3630 ha         1 5DR       0.131000
     43 HAL         -4.1400    -0.5880    -1.8790 ha         1 5DR       0.133000
     44 HAM         -2.4380    -2.2360    -2.3880 ha         1 5DR       0.135000
     45 HAN         -2.3030     0.1570     1.9150 ha         1 5DR       0.136000
     46 HAO          3.3610     0.5830     2.7830 hc         1 5DR       0.059200
     47 HAOA         4.7980     1.5850     2.6060 hc         1 5DR       0.059200
     48 HAP         -0.2160    -2.6440     1.9310 hc         1 5DR       0.062700
     49 HAPA        -0.5050    -1.0770     2.6450 hc         1 5DR       0.062700
@<TRIPOS>BOND
     1     1     2 ar  
     2     1     6 ar  
     3     2     3 ar  
     4     2     9 1   
     5     3     4 ar  
     6     4     5 ar  
     7     4    21 1   
     8     5     6 ar  
     9     5    12 1   
    10     6    10 1   
    11     7    21 1   
    12     7    28 1   
    13     7    29 1   
    14     7    30 1   
    15     8    23 1   
    16     8    31 1   
    17     8    32 1   
    18     8    33 1   
    19     9    34 1   
    20     9    35 1   
    21    10    36 1   
    22    10    37 1   
    23    11    12 3   
    24    11    22 1   
    25    13    14 ar  
    26    13    15 ar  
    27    13    38 1   
    28    14    16 ar  
    29    14    39 1   
    30    15    17 ar  
    31    15    40 1   
    32    16    24 ar  
    33    16    41 1   
    34    17    24 ar  
    35    17    42 1   
    36    18    19 ar  
    37    18    25 ar  
    38    18    43 1   
    39    19    27 ar  
    40    19    44 1   
    41    20    25 ar  
    42    20    26 ar  
    43    20    45 1   
    44    21    46 1   
    45    21    47 1   
    46    22    26 1   
    47    22    48 1   
    48    22    49 1   
    49    23    27 1   
    50    24    25 1   
    51    26    27 ar  
@<TRIPOS>SUBSTRUCTURE
     1 5DR         1 TEMP              0 ****  ****    0 ROOT
