@<TRIPOS>MOLECULE
5DR
   49    51     1     0     0
SMALL
No Charge or Current Charge


@<TRIPOS>ATOM
      1 N1           5.5660     0.1090    -0.1290 nb         1 5DR      -0.343000
      2 C2           5.2370     1.4010    -0.1860 ca         1 5DR       0.424900
      3 N3           4.0320     1.9530    -0.0090 nb         1 5DR      -0.293000
      4 C4           3.0160     1.1060     0.2560 ca         1 5DR       0.219300
      5 C5           3.2380    -0.2910     0.3400 ca         1 5DR      -0.214000
      6 C6           4.5610    -0.7290     0.1350 ca         1 5DR       0.444900
      7 CAA          0.7350     1.6470    -0.7890 c3         1 5DR      -0.084100
      8 CAB         -1.7270    -4.2290    -2.6300 c3         1 5DR       0.143900
      9 NAC          6.2500     2.2540    -0.4500 nv         1 5DR      -1.062900
     10 NAD          4.9240    -2.0380     0.1820 nv         1 5DR      -1.079900
     11 CAE          1.2100    -1.9340     0.8160 c1         1 5DR      -0.152100
     12 CAF          2.1570    -1.2060     0.6070 cg         1 5DR      -0.088000
     13 CAG         -4.3460     3.4570     2.1970 ca         1 5DR      -0.109000
     14 CAH         -5.2180     2.5720     1.5420 ca         1 5DR      -0.110500
     15 CAI         -2.9750     3.1640     2.2640 ca         1 5DR      -0.110500
     16 CAJ         -4.7170     1.3970     0.9540 ca         1 5DR      -0.102500
     17 CAK         -2.4760     1.9880     1.6780 ca         1 5DR      -0.102500
     18 CAL         -3.3530    -0.6820    -0.8170 ca         1 5DR      -0.060000
     19 CAM         -2.8420    -1.8460    -1.4150 ca         1 5DR      -0.197000
     20 CAN         -1.7220    -0.8780     0.9630 ca         1 5DR      -0.059000
     21 CAO          1.6430     1.7530     0.4560 c3         1 5DR      -0.134700
     22 CAP         -0.0010    -2.7310     1.0410 c3         1 5DR       0.078000
     23 OAS         -1.2250    -3.6730    -1.4020 os         1 5DR      -0.345100
     24 CAV         -3.3360     1.0790     1.0100 cp         1 5DR      -0.027000
     25 CAW         -2.8020    -0.1720     0.3820 cp         1 5DR      -0.067000
     26 CAX         -1.1960    -2.0470     0.3740 ca         1 5DR      -0.111300
     27 CAZ         -1.7580    -2.5340    -0.8270 ca         1 5DR       0.146100
     28 HAA         -0.2250     2.1450    -0.6070 hc         1 5DR       0.038033
     29 HAAA         1.2100     2.1240    -1.6540 hc         1 5DR       0.038033
     30 HAAB         0.5320     0.6000    -1.0410 hc         1 5DR       0.038033
     31 HAB         -1.6350    -3.5070    -3.4520 h1         1 5DR       0.041700
     32 HABA        -1.1580    -5.1270    -2.9020 h1         1 5DR       0.041700
     33 HABB        -2.7820    -4.5150    -2.5270 h1         1 5DR       0.041700
     34 HNAC         7.2020     1.9080    -0.3570 hn         1 5DR       0.493500
     35 HNAA         6.1050     3.2450    -0.2740 hn         1 5DR       0.493500
     36 HNAD         5.8200    -2.2970    -0.2220 hn         1 5DR       0.503500
     37 HNAB         4.1870    -2.7370     0.1470 hn         1 5DR       0.503500
     38 HAG         -4.7330     4.3670     2.6510 ha         1 5DR       0.113000
     39 HAH         -6.2810     2.7950     1.4900 ha         1 5DR       0.112500
     40 HAI         -2.2970     3.8500     2.7690 ha         1 5DR       0.112500
     41 HAJ         -5.4110     0.7190     0.4630 ha         1 5DR       0.113000
     42 HAK         -1.4090     1.7890     1.7310 ha         1 5DR       0.113000
     43 HAL         -4.1760    -0.1610    -1.3020 ha         1 5DR       0.115000
     44 HAM         -3.2970    -2.1920    -2.3380 ha         1 5DR       0.117000
     45 HAN         -1.2830    -0.5140     1.8890 ha         1 5DR       0.118000
     46 HAO          1.1300     1.2980     1.3120 hc         1 5DR       0.059200
     47 HAOA         1.7580     2.8140     0.7120 hc         1 5DR       0.059200
     48 HAP          0.1610    -3.7490     0.6680 hc         1 5DR       0.062700
     49 HAPA        -0.1700    -2.8240     2.1210 hc         1 5DR       0.062700
@<TRIPOS>BOND
     1     1     2 ar  
     2     1     6 ar  
     3     2     3 ar  
     4     2     9 1   
     5     3     4 ar  
     6     4     5 ar  
     7     4    21 1   
     8     5     6 ar  
     9     5    12 1   
    10     6    10 1   
    11     7    21 1   
    12     7    28 1   
    13     7    29 1   
    14     7    30 1   
    15     8    23 1   
    16     8    31 1   
    17     8    32 1   
    18     8    33 1   
    19     9    34 1   
    20     9    35 1   
    21    10    36 1   
    22    10    37 1   
    23    11    12 3   
    24    11    22 1   
    25    13    14 ar  
    26    13    15 ar  
    27    13    38 1   
    28    14    16 ar  
    29    14    39 1   
    30    15    17 ar  
    31    15    40 1   
    32    16    24 ar  
    33    16    41 1   
    34    17    24 ar  
    35    17    42 1   
    36    18    19 ar  
    37    18    25 ar  
    38    18    43 1   
    39    19    27 ar  
    40    19    44 1   
    41    20    25 ar  
    42    20    26 ar  
    43    20    45 1   
    44    21    46 1   
    45    21    47 1   
    46    22    26 1   
    47    22    48 1   
    48    22    49 1   
    49    23    27 1   
    50    24    25 1   
    51    26    27 ar  
@<TRIPOS>SUBSTRUCTURE
     1 5DR         1 TEMP              0 ****  ****    0 ROOT
