@<TRIPOS>MOLECULE
5DS
   25    25     1     0     0
SMALL
No Charge or Current Charge


@<TRIPOS>ATOM
      1 C1          -3.8470     6.7300    12.4780 c3         1 5DS       0.207100
      2 N1          -3.3020     5.9070    13.5850 nh         1 5DS      -0.760300
      3 C2          -2.3790     6.5640    14.5400 c3         1 5DS       0.207100
      4 C3          -3.6430     4.5740    13.7170 cc         1 5DS       0.685300
      5 S1          -3.0170     3.5920    15.0060 ss         1 5DS      -0.286800
      6 N2          -4.4630     3.9500    12.8840 nd         1 5DS      -0.420000
      7 N3          -4.6440     2.6230    13.2310 nd         1 5DS      -0.279000
      8 C4          -3.9660     2.3060    14.3250 cc         1 5DS       0.337700
      9 C5          -3.9360     0.9180    14.9290 c3         1 5DS      -0.066800
     10 N4          -3.8470    -0.2200    13.8950 n8         1 5DS      -1.006200
     11 S2          -5.2720     0.7910    16.1930 s6         1 5DS       1.176100
     12 O2          -6.5400     1.3340    15.7020 o          1 5DS      -0.517000
     13 O3          -4.7520     1.1310    17.5160 o          1 5DS      -0.517000
     14 N5          -5.4280    -0.8430    16.1770 n8         1 5DS      -0.983100
     15 H11         -4.9440     6.7600    12.5280 h1         1 5DS       0.051200
     16 H12         -3.5560     6.3070    11.5070 h1         1 5DS       0.051200
     17 H13         -3.4780     7.7630    12.5210 h1         1 5DS       0.051200
     18 H21         -2.7870     6.5210    15.5590 h1         1 5DS       0.051200
     19 H22         -2.2170     7.6190    14.2860 h1         1 5DS       0.051200
     20 H23         -1.4020     6.0620    14.5370 h1         1 5DS       0.051200
     21 H5          -3.0390     0.8500    15.5560 h2         1 5DS       0.081700
     22 HN41        -2.9950    -0.1120    13.3220 hn         1 5DS       0.435000
     23 HN42        -4.5950    -0.1110    13.1900 hn         1 5DS       0.435000
     24 HN51        -4.8510    -1.1140    16.9680 hn         1 5DS       0.481500
     25 HN52        -4.8250    -1.0470    15.3690 hn         1 5DS       0.481500
@<TRIPOS>BOND
     1     1     2 1   
     2     1    15 1   
     3     1    16 1   
     4     1    17 1   
     5     2     3 1   
     6     2     4 1   
     7     3    18 1   
     8     3    19 1   
     9     3    20 1   
    10     4     5 1   
    11     4     6 2   
    12     5     8 1   
    13     6     7 1   
    14     7     8 2   
    15     8     9 1   
    16     9    10 1   
    17     9    11 1   
    18     9    21 1   
    19    10    22 1   
    20    10    23 1   
    21    11    12 2   
    22    11    13 2   
    23    11    14 1   
    24    14    24 1   
    25    14    25 1   
@<TRIPOS>SUBSTRUCTURE
     1 5DS         1 TEMP              0 ****  ****    0 ROOT
