@<TRIPOS>MOLECULE
5DS
   25    25     1     0     0
SMALL
abcg2


@<TRIPOS>ATOM
      1 C1          -3.7430     6.7140    12.4990 c3         1 5DS       0.207100
      2 N1          -3.4110     5.9600    13.7020 nh         1 5DS      -0.760300
      3 C2          -2.4860     6.5540    14.6560 c3         1 5DS       0.207100
      4 C3          -3.6350     4.6360    13.7210 cc         1 5DS       0.685300
      5 S1          -3.0910     3.6100    15.0360 ss         1 5DS      -0.286800
      6 N2          -4.2920     3.9720    12.7860 nd         1 5DS      -0.420000
      7 N3          -4.4250     2.6500    13.0850 nd         1 5DS      -0.279000
      8 C4          -3.8680     2.2940    14.1970 cc         1 5DS       0.337700
      9 C5          -3.9140     0.8890    14.7200 c3         1 5DS      -0.066800
     10 N4          -4.2480    -0.1260    13.7600 n8         1 5DS      -1.006200
     11 S2          -5.1790     0.8060    16.0680 s6         1 5DS       1.176100
     12 O2          -6.4790     0.9760    15.4590 o          1 5DS      -0.517000
     13 O3          -4.7690     1.7000    17.1260 o          1 5DS      -0.517000
     14 N5          -5.1220    -0.7160    16.6690 n8         1 5DS      -0.983100
     15 H11         -4.6910     6.3640    12.0970 h1         1 5DS       0.051200
     16 H12         -2.9710     6.6010    11.7310 h1         1 5DS       0.051200
     17 H13         -3.8300     7.7650    12.7650 h1         1 5DS       0.051200
     18 H21         -2.7000     6.1920    15.6630 h1         1 5DS       0.051200
     19 H22         -2.6230     7.6330    14.6470 h1         1 5DS       0.051200
     20 H23         -1.4440     6.3260    14.4100 h1         1 5DS       0.051200
     21 H5          -2.9860     0.6400    15.2330 h2         1 5DS       0.081700
     22 HN41        -3.4100    -0.5100    13.3410 hn         1 5DS       0.435000
     23 HN42        -4.8310     0.2550    13.0230 hn         1 5DS       0.435000
     24 HN51        -4.2560    -0.9100    17.1630 hn         1 5DS       0.481500
     25 HN52        -5.3220    -1.4180    15.9630 hn         1 5DS       0.481500
@<TRIPOS>BOND
     1     1     2 1   
     2     1    15 1   
     3     1    16 1   
     4     1    17 1   
     5     2     3 1   
     6     2     4 1   
     7     3    18 1   
     8     3    19 1   
     9     3    20 1   
    10     4     5 1   
    11     4     6 2   
    12     5     8 1   
    13     6     7 1   
    14     7     8 2   
    15     8     9 1   
    16     9    10 1   
    17     9    11 1   
    18     9    21 1   
    19    10    22 1   
    20    10    23 1   
    21    11    12 2   
    22    11    13 2   
    23    11    14 1   
    24    14    24 1   
    25    14    25 1   
@<TRIPOS>SUBSTRUCTURE
     1 5DS         1 TEMP              0 ****  ****    0 ROOT
