@<TRIPOS>MOLECULE
5DT
   49    51     1     0     0
SMALL
bcc


@<TRIPOS>ATOM
      1 F32          0.3320    -1.1430     1.0300 f          1 5DT      -0.123900
      2 C6           0.0610     0.1490     0.8580 ca         1 5DT       0.125900
      3 C1           1.0040     1.0770     1.2820 ca         1 5DT      -0.022100
      4 S11          2.4910     0.5960     2.0880 ss         1 5DT      -0.243000
      5 C21          3.4430    -0.0620     0.6720 c3         1 5DT       0.012700
      6 C24          4.8080    -0.5200     1.1790 c3         1 5DT      -0.021100
      7 C29          5.6270    -1.0570     0.0370 ca         1 5DT      -0.086300
      8 C28          5.4770    -2.3770    -0.3830 ca         1 5DT      -0.122500
      9 C27          6.1990    -2.8650    -1.4630 ca         1 5DT      -0.126500
     10 C31          6.5160    -0.2350    -0.6510 ca         1 5DT      -0.122500
     11 C30          7.2410    -0.7200    -1.7320 ca         1 5DT      -0.126500
     12 C26          7.0830    -2.0370    -2.1420 ca         1 5DT      -0.125000
     13 C5          -1.1350     0.4980     0.2530 ca         1 5DT       0.131600
     14 C4          -1.3960     1.8610     0.0660 ca         1 5DT      -0.214500
     15 S7          -2.8320     2.3290    -0.8980 sy         1 5DT       1.311200
     16 O9          -2.5950     1.7920    -2.2240 o          1 5DT      -0.605300
     17 N10         -4.0790     1.5880    -0.1350 n8         1 5DT      -0.916700
     18 O8          -3.0560     3.7540    -0.7410 o          1 5DT      -0.605300
     19 C3          -0.4790     2.8110     0.4850 ca         1 5DT       0.172900
     20 F12         -0.6610     4.1130     0.3120 f          1 5DT      -0.084900
     21 C2           0.7030     2.4120     1.0910 ca         1 5DT       0.141900
     22 F13          1.5570     3.3490     1.4750 f          1 5DT      -0.096900
     23 N25         -2.0930    -0.4580    -0.1510 nu         1 5DT      -0.733600
     24 C14         -2.7590    -1.1530     0.9630 c3         1 5DT       0.212100
     25 C15         -3.7900    -2.1040     0.4200 ca         1 5DT      -0.094300
     26 C20         -3.3930    -3.3120    -0.1500 ca         1 5DT      -0.120000
     27 C19         -4.3290    -4.1830    -0.6880 ca         1 5DT      -0.125500
     28 C18         -5.6800    -3.8600    -0.6560 ca         1 5DT      -0.118000
     29 C17         -6.0870    -2.6640    -0.0830 ca         1 5DT      -0.125500
     30 C16         -5.1460    -1.7920     0.4500 ca         1 5DT      -0.120000
     31 H1           2.9020    -0.8970     0.2300 h1         1 5DT       0.070200
     32 H2           3.5520     0.7230    -0.0760 h1         1 5DT       0.070200
     33 H3           5.3250     0.3170     1.6520 hc         1 5DT       0.061200
     34 H4           4.6740    -1.2890     1.9420 hc         1 5DT       0.061200
     35 H5           4.7900    -3.0310     0.1420 ha         1 5DT       0.130500
     36 H6           6.0720    -3.8950    -1.7730 ha         1 5DT       0.131500
     37 H7           6.6470     0.7940    -0.3360 ha         1 5DT       0.130500
     38 H8           7.9320    -0.0680    -2.2510 ha         1 5DT       0.131500
     39 H9           7.6480    -2.4170    -2.9830 ha         1 5DT       0.132000
     40 H10         -4.8960     2.1850    -0.0770 hn         1 5DT       0.436800
     41 H11         -4.2850     0.6680    -0.5050 hn         1 5DT       0.436800
     42 H12         -1.6830    -1.1260    -0.7930 hn         1 5DT       0.399800
     43 H13         -2.0550    -1.7010     1.5970 h1         1 5DT       0.058700
     44 H14         -3.2380    -0.4000     1.5890 h1         1 5DT       0.058700
     45 H15         -2.3420    -3.5800    -0.1670 ha         1 5DT       0.131000
     46 H16         -4.0040    -5.1180    -1.1260 ha         1 5DT       0.134000
     47 H17         -6.4120    -4.5420    -1.0710 ha         1 5DT       0.134000
     48 H18         -7.1380    -2.4080    -0.0460 ha         1 5DT       0.134000
     49 H19         -5.4760    -0.8660     0.9070 ha         1 5DT       0.131000
@<TRIPOS>BOND
     1     1     2 1   
     2     2     3 ar  
     3     2    13 ar  
     4     3     4 1   
     5     3    21 ar  
     6     4     5 1   
     7     5     6 1   
     8     5    31 1   
     9     5    32 1   
    10     6     7 1   
    11     6    33 1   
    12     6    34 1   
    13     7     8 ar  
    14     7    10 ar  
    15     8     9 ar  
    16     8    35 1   
    17     9    12 ar  
    18     9    36 1   
    19    10    11 ar  
    20    10    37 1   
    21    11    12 ar  
    22    11    38 1   
    23    12    39 1   
    24    13    14 ar  
    25    13    23 1   
    26    14    15 1   
    27    14    19 ar  
    28    15    16 2   
    29    15    17 1   
    30    15    18 2   
    31    17    40 1   
    32    17    41 1   
    33    19    20 1   
    34    19    21 ar  
    35    21    22 1   
    36    23    24 1   
    37    23    42 1   
    38    24    25 1   
    39    24    43 1   
    40    24    44 1   
    41    25    26 ar  
    42    25    30 ar  
    43    26    27 ar  
    44    26    45 1   
    45    27    28 ar  
    46    27    46 1   
    47    28    29 ar  
    48    28    47 1   
    49    29    30 ar  
    50    29    48 1   
    51    30    49 1   
@<TRIPOS>SUBSTRUCTURE
     1 5DT         1 TEMP              0 ****  ****    0 ROOT
