@<TRIPOS>MOLECULE
5DT
   49    51     1     0     0
SMALL
No Charge or Current Charge


@<TRIPOS>ATOM
      1 F32          0.4120    -0.9410     1.1380 f          1 5DT      -0.159000
      2 C6           0.0790     0.3640     0.9790 ca         1 5DT       0.161000
      3 C1           1.0020     1.3540     1.3680 ca         1 5DT      -0.149000
      4 S11          2.5990     0.9160     2.0640 ss         1 5DT      -0.164000
      5 C21          3.4380     0.0240     0.6800 c3         1 5DT       0.060600
      6 C24          4.8650    -0.3840     1.0840 c3         1 5DT      -0.021100
      7 C29          5.5830    -1.1200    -0.0390 ca         1 5DT      -0.086300
      8 C28          5.4520    -2.5170    -0.1700 ca         1 5DT      -0.104500
      9 C27          6.1090    -3.1960    -1.2110 ca         1 5DT      -0.108500
     10 C31          6.3760    -0.4100    -0.9620 ca         1 5DT      -0.104500
     11 C30          7.0320    -1.0900    -2.0030 ca         1 5DT      -0.108500
     12 C26          6.8990    -2.4830    -2.1270 ca         1 5DT      -0.107000
     13 C5          -1.1890     0.7120     0.4340 ca         1 5DT       0.270000
     14 C4          -1.5240     2.0770     0.2640 ca         1 5DT      -0.214500
     15 S7          -3.0560     2.5940    -0.5270 sy         1 5DT       1.169600
     16 O9          -2.9880     2.2800    -1.9510 o          1 5DT      -0.534500
     17 N10         -4.1910     1.5560     0.0170 n8         1 5DT      -1.027100
     18 O8          -3.4840     3.9080    -0.0460 o          1 5DT      -0.534500
     19 C3          -0.5860     3.0650     0.6480 ca         1 5DT       0.208000
     20 F12         -0.8390     4.3810     0.4560 f          1 5DT      -0.120000
     21 C2           0.6540     2.7050     1.2060 ca         1 5DT       0.177000
     22 F13          1.5340     3.6700     1.5630 f          1 5DT      -0.132000
     23 N25         -2.0880    -0.3090     0.0690 nu         1 5DT      -0.927200
     24 C14         -2.7310    -1.2030     1.0510 c3         1 5DT       0.212100
     25 C15         -3.6920    -2.1420     0.3390 ca         1 5DT      -0.094300
     26 C20         -3.1960    -3.2430    -0.3880 ca         1 5DT      -0.102000
     27 C19         -4.0800    -4.1130    -1.0490 ca         1 5DT      -0.107500
     28 C18         -5.4660    -3.8900    -0.9860 ca         1 5DT      -0.100000
     29 C17         -5.9670    -2.7960    -0.2600 ca         1 5DT      -0.107500
     30 C16         -5.0830    -1.9240     0.4000 ca         1 5DT      -0.102000
     31 H1           2.8600    -0.8700     0.4180 h1         1 5DT       0.070200
     32 H2           3.4750     0.6840    -0.1960 h1         1 5DT       0.070200
     33 H3           5.4270     0.5140     1.3710 hc         1 5DT       0.061200
     34 H4           4.8170    -1.0150     1.9800 hc         1 5DT       0.061200
     35 H5           4.8400    -3.0760     0.5340 ha         1 5DT       0.112500
     36 H6           6.0040    -4.2750    -1.3070 ha         1 5DT       0.113500
     37 H7           6.4820     0.6690    -0.8750 ha         1 5DT       0.112500
     38 H8           7.6430    -0.5360    -2.7130 ha         1 5DT       0.113500
     39 H9           7.4070    -3.0090    -2.9330 ha         1 5DT       0.114000
     40 H10         -4.6830     1.3680    -0.8510 hn         1 5DT       0.492000
     41 H11         -3.5950     0.7250     0.1180 hn         1 5DT       0.492000
     42 H12         -1.7700    -0.8180    -0.7610 hn         1 5DT       0.455000
     43 H13         -1.9760    -1.7990     1.5820 h1         1 5DT       0.058700
     44 H14         -3.2740    -0.6190     1.8070 h1         1 5DT       0.058700
     45 H15         -2.1240    -3.4230    -0.4410 ha         1 5DT       0.113000
     46 H16         -3.6920    -4.9610    -1.6100 ha         1 5DT       0.116000
     47 H17         -6.1500    -4.5640    -1.4970 ha         1 5DT       0.116000
     48 H18         -7.0400    -2.6230    -0.2100 ha         1 5DT       0.116000
     49 H19         -5.4820    -1.0820     0.9610 ha         1 5DT       0.113000
@<TRIPOS>BOND
     1     1     2 1   
     2     2     3 ar  
     3     2    13 ar  
     4     3     4 1   
     5     3    21 ar  
     6     4     5 1   
     7     5     6 1   
     8     5    31 1   
     9     5    32 1   
    10     6     7 1   
    11     6    33 1   
    12     6    34 1   
    13     7     8 ar  
    14     7    10 ar  
    15     8     9 ar  
    16     8    35 1   
    17     9    12 ar  
    18     9    36 1   
    19    10    11 ar  
    20    10    37 1   
    21    11    12 ar  
    22    11    38 1   
    23    12    39 1   
    24    13    14 ar  
    25    13    23 1   
    26    14    15 1   
    27    14    19 ar  
    28    15    16 2   
    29    15    17 1   
    30    15    18 2   
    31    17    40 1   
    32    17    41 1   
    33    19    20 1   
    34    19    21 ar  
    35    21    22 1   
    36    23    24 1   
    37    23    42 1   
    38    24    25 1   
    39    24    43 1   
    40    24    44 1   
    41    25    26 ar  
    42    25    30 ar  
    43    26    27 ar  
    44    26    45 1   
    45    27    28 ar  
    46    27    46 1   
    47    28    29 ar  
    48    28    47 1   
    49    29    30 ar  
    50    29    48 1   
    51    30    49 1   
@<TRIPOS>SUBSTRUCTURE
     1 5DT         1 TEMP              0 ****  ****    0 ROOT
