@<TRIPOS>MOLECULE
5DU
   44    46     1     0     0
SMALL
No Charge or Current Charge


@<TRIPOS>ATOM
      1 F13          0.7490    -1.7830     0.1680 f          1 5DU      -0.157000
      2 C9           0.9840    -0.4490     0.2520 ca         1 5DU       0.154000
      3 C8           2.2620    -0.0170     0.6530 ca         1 5DU      -0.150000
      4 S24          3.5580    -1.1940     1.0570 ss         1 5DU      -0.162000
      5 C25          3.8620    -2.0650    -0.5460 c3         1 5DU       0.050600
      6 C26          5.0050    -3.0870    -0.4000 c3         1 5DU       0.172600
      7 O27          5.2340    -3.7500    -1.6520 oh         1 5DU      -0.657000
      8 C7           2.5070     1.3590     0.7570 ca         1 5DU       0.182000
      9 F12          3.7250     1.7940     1.1600 f          1 5DU      -0.133000
     10 C6           1.5120     2.2920     0.4170 ca         1 5DU       0.186000
     11 F11          1.8180     3.6070     0.5160 f          1 5DU      -0.144000
     12 C10         -0.0580     0.4800    -0.0480 ca         1 5DU       0.295000
     13 C5           0.2290     1.8720    -0.0140 ca         1 5DU      -0.208500
     14 S1          -0.9240     3.1550    -0.5580 sy         1 5DU       1.157600
     15 O3          -2.1900     2.6340    -1.0670 o          1 5DU      -0.521500
     16 N4          -1.3540     3.9020     0.8300 n8         1 5DU      -1.039100
     17 O2          -0.2120     4.2120    -1.2730 o          1 5DU      -0.521500
     18 N14         -1.3280    -0.0130    -0.4040 nu         1 5DU      -0.895200
     19 C15         -2.0020    -0.6790     0.7460 c5         1 5DU       0.235800
     20 C19         -2.8860    -1.8070     0.2830 ca         1 5DU      -0.106300
     21 C20         -2.4990    -3.1380     0.0480 ca         1 5DU      -0.089000
     22 C21         -3.4690    -4.0610    -0.3900 ca         1 5DU      -0.117000
     23 C22         -4.8030    -3.6480    -0.5890 ca         1 5DU      -0.099000
     24 C23         -5.1720    -2.3100    -0.3500 ca         1 5DU      -0.101000
     25 C18         -4.1940    -1.4040     0.0890 ca         1 5DU      -0.051300
     26 C17         -4.3870     0.0590     0.3890 c5         1 5DU      -0.033100
     27 C16         -3.0940     0.3450     1.2460 c5         1 5DU      -0.076400
     28 H1           2.9470    -2.5820    -0.8600 h1         1 5DU       0.079700
     29 H2           4.1260    -1.3220    -1.3090 h1         1 5DU       0.079700
     30 H3           5.9140    -2.5650    -0.0730 h1         1 5DU       0.031700
     31 H4           4.7380    -3.8170     0.3750 h1         1 5DU       0.031700
     32 H5           5.9690    -4.3880    -1.5090 ho         1 5DU       0.449000
     33 H6          -1.1410     4.8670     0.5840 hn         1 5DU       0.488500
     34 H7          -2.3670     3.8750     0.7380 hn         1 5DU       0.488500
     35 H8          -1.3280    -0.5350    -1.2790 hn         1 5DU       0.455000
     36 H9          -1.3230    -0.9940     1.5520 h1         1 5DU       0.047700
     37 H10         -1.4690    -3.4500     0.2010 ha         1 5DU       0.112000
     38 H11         -3.1870    -5.0950    -0.5770 ha         1 5DU       0.113000
     39 H12         -5.5480    -4.3640    -0.9290 ha         1 5DU       0.112000
     40 H13         -6.1980    -1.9840    -0.5040 ha         1 5DU       0.115000
     41 H14         -4.4010     0.6560    -0.5300 hc         1 5DU       0.062700
     42 H15         -5.3090     0.2700     0.9420 hc         1 5DU       0.062700
     43 H16         -3.3130     0.1390     2.3000 hc         1 5DU       0.050200
     44 H17         -2.7760     1.3900     1.2130 hc         1 5DU       0.050200
@<TRIPOS>BOND
     1     1     2 1   
     2     2     3 ar  
     3     2    12 ar  
     4     3     4 1   
     5     3     8 ar  
     6     4     5 1   
     7     5     6 1   
     8     5    28 1   
     9     5    29 1   
    10     6     7 1   
    11     6    30 1   
    12     6    31 1   
    13     7    32 1   
    14     8     9 1   
    15     8    10 ar  
    16    10    11 1   
    17    10    13 ar  
    18    12    13 ar  
    19    12    18 1   
    20    13    14 1   
    21    14    15 2   
    22    14    16 1   
    23    14    17 2   
    24    16    33 1   
    25    16    34 1   
    26    18    19 1   
    27    18    35 1   
    28    19    20 1   
    29    19    27 1   
    30    19    36 1   
    31    20    21 ar  
    32    20    25 ar  
    33    21    22 ar  
    34    21    37 1   
    35    22    23 ar  
    36    22    38 1   
    37    23    24 ar  
    38    23    39 1   
    39    24    25 ar  
    40    24    40 1   
    41    25    26 1   
    42    26    27 1   
    43    26    41 1   
    44    26    42 1   
    45    27    43 1   
    46    27    44 1   
@<TRIPOS>SUBSTRUCTURE
     1 5DU         1 TEMP              0 ****  ****    0 ROOT
