@<TRIPOS>MOLECULE
5DU
   44    46     1     0     0
SMALL
abcg2


@<TRIPOS>ATOM
      1 F13          0.9910    -2.0170     0.2210 f          1 5DU      -0.157000
      2 C9           1.0930    -0.6900     0.2300 ca         1 5DU       0.154000
      3 C8           2.2940    -0.1330     0.6380 ca         1 5DU      -0.150000
      4 S24          3.6400    -1.1240     1.1870 ss         1 5DU      -0.162000
      5 C25          4.3090    -1.6560    -0.4260 c3         1 5DU       0.050600
      6 C26          5.4980    -2.5640    -0.1640 c3         1 5DU       0.172600
      7 O27          6.0000    -2.9620    -1.4170 oh         1 5DU      -0.657000
      8 C7           2.3700     1.2490     0.6670 ca         1 5DU       0.182000
      9 F12          3.4750     1.8520     1.0820 f          1 5DU      -0.133000
     10 C6           1.3050     2.0220     0.2560 ca         1 5DU       0.186000
     11 F11          1.4330     3.3460     0.3210 f          1 5DU      -0.144000
     12 C10         -0.0200     0.0490    -0.1720 ca         1 5DU       0.295000
     13 C5           0.1270     1.4420    -0.1960 ca         1 5DU      -0.208500
     14 S1          -1.0700     2.5670    -0.9320 sy         1 5DU       1.157600
     15 O3          -2.1850     1.8510    -1.5080 o          1 5DU      -0.521500
     16 N4          -1.6310     3.3790     0.3820 n8         1 5DU      -1.039100
     17 O2          -0.2770     3.4280    -1.7900 o          1 5DU      -0.521500
     18 N14         -1.2300    -0.5940    -0.4820 nu         1 5DU      -0.895200
     19 C15         -1.9720    -1.0920     0.6940 c5         1 5DU       0.235800
     20 C19         -3.1640    -1.8710     0.2040 ca         1 5DU      -0.106300
     21 C20         -3.1960    -3.1600    -0.3030 ca         1 5DU      -0.089000
     22 C21         -4.4120    -3.6850    -0.7260 ca         1 5DU      -0.117000
     23 C22         -5.5720    -2.9210    -0.6400 ca         1 5DU      -0.099000
     24 C23         -5.5340    -1.6260    -0.1330 ca         1 5DU      -0.101000
     25 C18         -4.3210    -1.1030     0.2890 ca         1 5DU      -0.051300
     26 C17         -4.0160     0.2480     0.8690 c5         1 5DU      -0.033100
     27 C16         -2.6300     0.0390     1.4950 c5         1 5DU      -0.076400
     28 H1           3.5370    -2.1880    -0.9800 h1         1 5DU       0.079700
     29 H2           4.6150    -0.7760    -0.9920 h1         1 5DU       0.079700
     30 H3           6.2490    -2.0220     0.4220 h1         1 5DU       0.031700
     31 H4           5.1750    -3.4230     0.4370 h1         1 5DU       0.031700
     32 H5           6.7730    -3.5150    -1.2680 ho         1 5DU       0.449000
     33 H6          -1.1720     4.2650     0.5590 hn         1 5DU       0.488500
     34 H7          -2.6400     3.4690     0.3870 hn         1 5DU       0.488500
     35 H8          -1.0700    -1.3530    -1.1330 hn         1 5DU       0.455000
     36 H9          -1.3300    -1.7020     1.3420 h1         1 5DU       0.047700
     37 H10         -2.2940    -3.7590    -0.3610 ha         1 5DU       0.112000
     38 H11         -4.4590    -4.6940    -1.1170 ha         1 5DU       0.113000
     39 H12         -6.5160    -3.3430    -0.9630 ha         1 5DU       0.112000
     40 H13         -6.4440    -1.0430    -0.0610 ha         1 5DU       0.115000
     41 H14         -3.9870     0.9990     0.0760 hc         1 5DU       0.062700
     42 H15         -4.7580     0.5760     1.5980 hc         1 5DU       0.062700
     43 H16         -2.7480    -0.3070     2.5240 hc         1 5DU       0.050200
     44 H17         -2.0260     0.9460     1.5390 hc         1 5DU       0.050200
@<TRIPOS>BOND
     1     1     2 1   
     2     2     3 ar  
     3     2    12 ar  
     4     3     4 1   
     5     3     8 ar  
     6     4     5 1   
     7     5     6 1   
     8     5    28 1   
     9     5    29 1   
    10     6     7 1   
    11     6    30 1   
    12     6    31 1   
    13     7    32 1   
    14     8     9 1   
    15     8    10 ar  
    16    10    11 1   
    17    10    13 ar  
    18    12    13 ar  
    19    12    18 1   
    20    13    14 1   
    21    14    15 2   
    22    14    16 1   
    23    14    17 2   
    24    16    33 1   
    25    16    34 1   
    26    18    19 1   
    27    18    35 1   
    28    19    20 1   
    29    19    27 1   
    30    19    36 1   
    31    20    21 ar  
    32    20    25 ar  
    33    21    22 ar  
    34    21    37 1   
    35    22    23 ar  
    36    22    38 1   
    37    23    24 ar  
    38    23    39 1   
    39    24    25 ar  
    40    24    40 1   
    41    25    26 1   
    42    26    27 1   
    43    26    41 1   
    44    26    42 1   
    45    27    43 1   
    46    27    44 1   
@<TRIPOS>SUBSTRUCTURE
     1 5DU         1 TEMP              0 ****  ****    0 ROOT
