@<TRIPOS>MOLECULE
5DV
   47    49     1     0     0
SMALL
bcc


@<TRIPOS>ATOM
      1 NBB         -7.8490     0.4970    -0.7280 n1         1 5DV      -0.381800
      2 CBA         -6.7250     0.2570    -0.7830 c1         1 5DV       0.211700
      3 CAZ         -5.3070    -0.0610    -0.8410 c3         1 5DV      -0.021300
      4 CAY         -4.9380    -1.2150     0.1040 c3         1 5DV      -0.022100
      5 CAT         -3.4680    -1.5110     0.0080 ca         1 5DV      -0.107300
      6 CAS         -2.5510    -0.7480     0.7230 ca         1 5DV      -0.036000
      7 CAU         -2.9990    -2.5160    -0.8290 ca         1 5DV      -0.084000
      8 CAV         -1.6370    -2.7790    -0.9710 ca         1 5DV      -0.097300
      9 CAX         -1.1540    -3.8500    -1.9040 c3         1 5DV      -0.045800
     10 CAW         -0.7380    -2.0050    -0.2470 ca         1 5DV      -0.044000
     11 CAR         -1.1900    -0.9930     0.5980 ca         1 5DV      -0.325500
     12 PAO         -0.0530     0.0530     1.5150 py         1 5DV       1.410800
     13 OAQ          0.9610    -1.0550     2.1080 os         1 5DV      -0.582200
     14 CBC          1.9790    -0.6460     3.0250 c3         1 5DV       0.163700
     15 OAP         -0.6990     0.9190     2.5390 o          1 5DV      -0.818300
     16 CAI          0.9390     0.9570     0.3360 cc         1 5DV      -0.333800
     17 CAE          2.1660     0.5780    -0.3060 ca         1 5DV      -0.042800
     18 CAF          2.9580    -0.5780    -0.3020 ca         1 5DV      -0.085000
     19 CAA          4.0930    -0.5830    -1.0800 ca         1 5DV       0.010400
     20 CL           5.0910    -2.0040    -1.1030 cl         1 5DV      -0.110400
     21 CAB          4.4840     0.5140    -1.8630 ca         1 5DV      -0.102000
     22 CAC          3.7170     1.6580    -1.8790 ca         1 5DV      -0.129000
     23 CAD          2.5650     1.6750    -1.0970 ca         1 5DV      -0.055200
     24 NAG          1.6340     2.6600    -0.9380 na         1 5DV      -0.146400
     25 CAH          0.6570     2.2320    -0.1020 cd         1 5DV      -0.042300
     26 CAL         -0.5610     3.0490     0.1610 c          1 5DV       0.698300
     27 OAN         -1.6610     2.5260     0.1460 o          1 5DV      -0.564100
     28 NAM         -0.3380     4.3550     0.3540 nt         1 5DV      -0.666000
     29 H1          -5.0560    -0.3130    -1.8730 hc         1 5DV       0.077700
     30 H2          -4.7470     0.8410    -0.5840 hc         1 5DV       0.077700
     31 H3          -5.2050    -0.9420     1.1250 hc         1 5DV       0.058200
     32 H4          -5.5210    -2.0990    -0.1610 hc         1 5DV       0.058200
     33 H5          -2.9020     0.0400     1.3770 ha         1 5DV       0.160000
     34 H6          -3.7130    -3.1120    -1.3880 ha         1 5DV       0.127000
     35 H7          -1.0100    -3.4490    -2.9090 hc         1 5DV       0.042367
     36 H8          -0.2000    -4.2640    -1.5810 hc         1 5DV       0.042367
     37 H9          -1.8700    -4.6680    -1.9810 hc         1 5DV       0.042367
     38 H10          0.3230    -2.2040    -0.3510 ha         1 5DV       0.131000
     39 H11          2.4980    -1.5450     3.3460 h1         1 5DV       0.042033
     40 H12          2.6990     0.0260     2.5540 h1         1 5DV       0.042033
     41 H14          2.6900    -1.4470     0.2810 ha         1 5DV       0.164000
     42 H15          5.3850     0.4590    -2.4570 ha         1 5DV       0.150000
     43 H16          4.0040     2.5090    -2.4820 ha         1 5DV       0.140000
     44 H17          1.6260     3.5340    -1.4420 hn         1 5DV       0.305700
     45 H18          0.5850     4.7230     0.5110 hn         1 5DV       0.321500
     46 H19         -1.1130     4.9720     0.5410 hn         1 5DV       0.321500
     47 H21          1.5510    -0.1520     3.8970 h1         1 5DV       0.042033
@<TRIPOS>BOND
     1     1     2 3   
     2     2     3 1   
     3     3     4 1   
     4     3    29 1   
     5     3    30 1   
     6     4     5 1   
     7     4    31 1   
     8     4    32 1   
     9     5     6 ar  
    10     5     7 ar  
    11     6    11 ar  
    12     6    33 1   
    13     7     8 ar  
    14     7    34 1   
    15     8     9 1   
    16     8    10 ar  
    17     9    35 1   
    18     9    36 1   
    19     9    37 1   
    20    10    11 ar  
    21    10    38 1   
    22    11    12 1   
    23    12    13 1   
    24    12    15 2   
    25    12    16 1   
    26    13    14 1   
    27    14    39 1   
    28    14    40 1   
    29    14    47 1   
    30    16    17 1   
    31    16    25 2   
    32    17    18 ar  
    33    17    23 ar  
    34    18    19 ar  
    35    18    41 1   
    36    19    20 1   
    37    19    21 ar  
    38    21    22 ar  
    39    21    42 1   
    40    22    23 ar  
    41    22    43 1   
    42    23    24 1   
    43    24    25 1   
    44    24    44 1   
    45    25    26 1   
    46    26    27 2   
    47    26    28 1   
    48    28    45 1   
    49    28    46 1   
@<TRIPOS>SUBSTRUCTURE
     1 5DV         1 TEMP              0 ****  ****    0 ROOT
