@<TRIPOS>MOLECULE
5DV
   47    49     1     0     0
SMALL
No Charge or Current Charge


@<TRIPOS>ATOM
      1 NBB         -7.6950    -2.8380     2.2050 n1         1 5DV      -0.471000
      2 CBA         -6.8360    -2.2870     1.6410 c1         1 5DV       0.300900
      3 CAZ         -5.7360    -1.6220     0.9350 c3         1 5DV      -0.021300
      4 CAY         -4.4420    -2.4660     0.9050 c3         1 5DV      -0.022100
      5 CAT         -3.3160    -1.7540     0.1650 ca         1 5DV      -0.107300
      6 CAS         -2.4120    -0.9350     0.8680 ca         1 5DV      -0.018000
      7 CAU         -3.1800    -1.9030    -1.2280 ca         1 5DV      -0.066000
      8 CAV         -2.1450    -1.2450    -1.9180 ca         1 5DV      -0.097300
      9 CAX         -2.0040    -1.4090    -3.4240 c3         1 5DV      -0.045800
     10 CAW         -1.2450    -0.4280    -1.2100 ca         1 5DV      -0.026000
     11 CAR         -1.3750    -0.2690     0.1850 ca         1 5DV      -0.325500
     12 PAO         -0.2190     0.7870     1.1330 py         1 5DV       1.181500
     13 OAQ          0.2570    -0.2990     2.2360 os         1 5DV      -0.605400
     14 CBC          0.9470     0.1370     3.4150 c3         1 5DV       0.186900
     15 OAP         -0.9060     1.9520     1.7610 o          1 5DV      -0.589000
     16 CAI          1.2080     1.1880     0.0410 cc         1 5DV      -0.333800
     17 CAE          2.4470     0.4500    -0.0450 ca         1 5DV      -0.042800
     18 CAF          2.8760    -0.7390     0.5710 ca         1 5DV      -0.067000
     19 CAA          4.1640    -1.2210     0.2650 ca         1 5DV       0.102000
     20 Cl           4.7430    -2.7010     1.0190 cl         1 5DV      -0.202000
     21 CAB          4.9900    -0.5310    -0.6490 ca         1 5DV      -0.084000
     22 CAC          4.5250     0.6450    -1.2710 ca         1 5DV      -0.111000
     23 CAD          3.2410     1.1050    -0.9450 ca         1 5DV      -0.055200
     24 NAG          2.5950     2.2030    -1.4750 na         1 5DV      -0.196700
     25 CAH          1.2910     2.2280    -0.9070 cd         1 5DV      -0.042300
     26 CAL          0.1860     3.1840    -1.2780 c          1 5DV       0.631300
     27 OAN         -0.9590     3.1330    -0.8670 o          1 5DV      -0.564100
     28 NAM          0.5170     4.1520    -2.1640 nt         1 5DV      -0.599000
     29 H1          -6.0590    -1.4040    -0.0890 hc         1 5DV       0.077700
     30 H2          -5.5380    -0.6600     1.4220 hc         1 5DV       0.077700
     31 H3          -4.1310    -2.6940     1.9330 hc         1 5DV       0.058200
     32 H4          -4.6490    -3.4330     0.4280 hc         1 5DV       0.058200
     33 H5          -2.5160    -0.8160     1.9460 ha         1 5DV       0.142000
     34 H6          -3.8800    -2.5310    -1.7750 ha         1 5DV       0.109000
     35 H7          -2.5520    -0.6220    -3.9550 hc         1 5DV       0.042367
     36 H8          -0.9530    -1.3550    -3.7350 hc         1 5DV       0.042367
     37 H9          -2.3950    -2.3760    -3.7610 hc         1 5DV       0.042367
     38 H10         -0.4500     0.0790    -1.7510 ha         1 5DV       0.113000
     39 H11          1.2160    -0.7230     4.0410 h1         1 5DV       0.042033
     40 H12          1.8710     0.6700     3.1540 h1         1 5DV       0.042033
     41 H14          2.2470    -1.2950     1.2560 ha         1 5DV       0.146000
     42 H15          5.9810    -0.9150    -0.8810 ha         1 5DV       0.132000
     43 H16          5.1450     1.1750    -1.9910 ha         1 5DV       0.122000
     44 H17          2.9660     2.8260    -2.1850 hn         1 5DV       0.356000
     45 H18          1.4550     4.2310    -2.5190 hn         1 5DV       0.321500
     46 H19         -0.1920     4.8110    -2.4490 hn         1 5DV       0.321500
     47 H21          0.3160     0.8080     4.0140 h1         1 5DV       0.042033
@<TRIPOS>BOND
     1     1     2 3   
     2     2     3 1   
     3     3     4 1   
     4     3    29 1   
     5     3    30 1   
     6     4     5 1   
     7     4    31 1   
     8     4    32 1   
     9     5     6 ar  
    10     5     7 ar  
    11     6    11 ar  
    12     6    33 1   
    13     7     8 ar  
    14     7    34 1   
    15     8     9 1   
    16     8    10 ar  
    17     9    35 1   
    18     9    36 1   
    19     9    37 1   
    20    10    11 ar  
    21    10    38 1   
    22    11    12 1   
    23    12    13 1   
    24    12    15 2   
    25    12    16 1   
    26    13    14 1   
    27    14    39 1   
    28    14    40 1   
    29    14    47 1   
    30    16    17 1   
    31    16    25 2   
    32    17    18 ar  
    33    17    23 ar  
    34    18    19 ar  
    35    18    41 1   
    36    19    20 1   
    37    19    21 ar  
    38    21    22 ar  
    39    21    42 1   
    40    22    23 ar  
    41    22    43 1   
    42    23    24 1   
    43    24    25 1   
    44    24    44 1   
    45    25    26 1   
    46    26    27 2   
    47    26    28 1   
    48    28    45 1   
    49    28    46 1   
@<TRIPOS>SUBSTRUCTURE
     1 5DV         1 TEMP              0 ****  ****    0 ROOT
