@<TRIPOS>MOLECULE
5DW
   24    24     1     0     0
SMALL
bcc


@<TRIPOS>ATOM
      1 C1         -52.5890    -9.8470    15.4160 cg         1 5DW      -0.084000
      2 C2         -53.3950   -10.4800    14.7840 c1         1 5DW      -0.203500
      3 N          -46.9480    -7.3870    16.7900 n8         1 5DW      -0.897800
      4 CA         -47.6200    -6.2890    17.4640 c3         1 5DW       0.027500
      5 C          -46.6080    -5.4060    18.2450 c          1 5DW       0.931600
      6 O          -47.0950    -4.6050    19.0660 o          1 5DW      -0.832300
      7 CB         -48.7170    -6.8310    18.3920 c3         1 5DW      -0.023100
      8 CG         -49.7450    -7.6280    17.6450 ca         1 5DW      -0.025300
      9 CD1        -50.7990    -6.9910    16.9890 ca         1 5DW      -0.137500
     10 CD2        -49.6550    -9.0150    17.5450 ca         1 5DW      -0.137500
     11 CE1        -51.7310    -7.7080    16.2590 ca         1 5DW      -0.110000
     12 CE2        -50.5810    -9.7460    16.8190 ca         1 5DW      -0.110000
     13 CZ         -51.6320    -9.0990    16.1640 ca         1 5DW      -0.025000
     14 O1         -45.4020    -5.5440    17.9600 o          1 5DW      -0.832300
     15 H1         -54.1110   -11.0390    14.2250 ha         1 5DW       0.157500
     16 H2         -47.4770    -7.6780    15.9790 hn         1 5DW       0.331300
     17 H3         -46.0530    -7.0510    16.4580 hn         1 5DW       0.331300
     18 H5         -48.1150    -5.6060    16.7520 h1         1 5DW      -0.001300
     19 H6         -48.2530    -7.4560    19.1600 hc         1 5DW       0.060200
     20 H7         -49.1940    -5.9910    18.8960 hc         1 5DW       0.060200
     21 H8         -50.8950    -5.9140    17.0540 ha         1 5DW       0.139000
     22 H9         -48.8480    -9.5340    18.0480 ha         1 5DW       0.139000
     23 H10        -52.5430    -7.1930    15.7620 ha         1 5DW       0.121500
     24 H11        -50.4920   -10.8230    16.7560 ha         1 5DW       0.121500
@<TRIPOS>BOND
     1     1     2 3   
     2     1    13 1   
     3     2    15 1   
     4     3     4 1   
     5     3    16 1   
     6     3    17 1   
     7     4     5 1   
     8     4     7 1   
     9     4    18 1   
    10     5     6 1   
    11     5    14 1   
    12     7     8 1   
    13     7    19 1   
    14     7    20 1   
    15     8     9 ar  
    16     8    10 ar  
    17     9    11 ar  
    18     9    21 1   
    19    10    12 ar  
    20    10    22 1   
    21    11    13 ar  
    22    11    23 1   
    23    12    13 ar  
    24    12    24 1   
@<TRIPOS>SUBSTRUCTURE
     1 5DW         1 TEMP              0 ****  ****    0 ROOT
