@<TRIPOS>MOLECULE
5DX
   31    32     1     0     0
SMALL
bcc


@<TRIPOS>ATOM
      1 C01          1.2720    -4.0540     0.2810 c          1 5DX       0.901600
      2 O02          2.0470    -4.6260    -0.5140 o          1 5DX      -0.849800
      3 O03          0.2890    -4.5600     0.8540 o          1 5DX      -0.849800
      4 C04          4.3750     2.5410     0.0130 c          1 5DX       0.842100
      5 O05          5.5380     2.1100    -0.1150 o          1 5DX      -0.831800
      6 O06          4.0220     3.7070     0.2650 o          1 5DX      -0.831800
      7 C08         -0.8300     0.2390    -1.2800 ca         1 5DX      -0.123000
      8 C09         -2.2150     0.2540    -1.2030 ca         1 5DX      -0.106500
      9 C10         -2.8240     0.7610    -0.0660 ca         1 5DX      -0.039900
     10 C11         -2.0700     1.2540     0.9900 ca         1 5DX      -0.106500
     11 C12         -0.6880     1.2180     0.9110 ca         1 5DX      -0.123000
     12 C13         -0.0660     0.7040    -0.2200 ca         1 5DX       0.106800
     13 N14          0.6720    -1.8860     1.4780 n8         1 5DX      -0.876800
     14 C15          1.5970    -2.5680     0.5920 c3         1 5DX       0.017500
     15 C16          1.7400    -1.7840    -0.7210 c3         1 5DX       0.004900
     16 C17          3.4400     0.1430    -0.4530 cc         1 5DX      -0.287300
     17 C18          2.1680    -0.3710    -0.5210 cd         1 5DX      -0.081600
     18 N19          1.3420     0.6850    -0.2840 na         1 5DX       0.131300
     19 N20          2.0070     1.8220    -0.0560 nd         1 5DX      -0.525800
     20 C21          3.2860     1.5120    -0.1590 cc         1 5DX       0.275800
     21 H5          -2.5430     1.6530     1.8770 ha         1 5DX       0.129000
     22 H6          -0.0960     1.5840     1.7380 ha         1 5DX       0.155000
     23 H7          -0.2440    -1.8630     1.0450 hn         1 5DX       0.320300
     24 H8           0.5440    -2.4550     2.3060 hn         1 5DX       0.320300
     25 H10          2.5800    -2.5580     1.0790 h1         1 5DX       0.052700
     26 H11          2.4890    -2.2780    -1.3380 hc         1 5DX       0.047700
     27 H12          0.8030    -1.8430    -1.2810 hc         1 5DX       0.047700
     28 H13          4.3590    -0.4030    -0.5920 ha         1 5DX       0.160000
     29 H3          -0.3550    -0.1280    -2.1800 ha         1 5DX       0.155000
     30 BR7         -4.7080     0.7890     0.0460 br         1 5DX      -0.163100
     31 H4          -2.7980    -0.1170    -2.0350 ha         1 5DX       0.129000
@<TRIPOS>BOND
     1     1     2 1   
     2     1     3 1   
     3     1    14 1   
     4     4     5 1   
     5     4     6 1   
     6     4    20 1   
     7     7     8 ar  
     8     7    12 ar  
     9     7    29 1   
    10     8     9 ar  
    11     8    31 1   
    12     9    10 ar  
    13     9    30 1   
    14    10    11 ar  
    15    10    21 1   
    16    11    12 ar  
    17    11    22 1   
    18    12    18 1   
    19    13    14 1   
    20    13    23 1   
    21    13    24 1   
    22    14    15 1   
    23    14    25 1   
    24    15    17 1   
    25    15    26 1   
    26    15    27 1   
    27    16    17 2   
    28    16    20 1   
    29    16    28 1   
    30    17    18 1   
    31    18    19 1   
    32    19    20 2   
@<TRIPOS>SUBSTRUCTURE
     1 5DX         1 TEMP              0 ****  ****    0 ROOT
