@<TRIPOS>MOLECULE
5DX
   31    32     1     0     0
SMALL
No Charge or Current Charge


@<TRIPOS>ATOM
      1 C01          1.4130    -4.0840     0.4000 c          1 5DX       0.691000
      2 O02          2.3560    -4.8590     0.3270 o          1 5DX      -0.744500
      3 O03          0.2450    -4.4490     0.3350 o          1 5DX      -0.744500
      4 C04          4.5650     2.3810    -0.2810 c          1 5DX       0.631500
      5 O05          5.6400     1.7970    -0.3700 o          1 5DX      -0.726500
      6 O06          4.5140     3.6030    -0.1790 o          1 5DX      -0.726500
      7 C08         -0.8210     0.8500    -1.5070 ca         1 5DX      -0.105000
      8 C09         -2.2250     0.7840    -1.5180 ca         1 5DX      -0.088500
      9 C10         -2.9330     0.7220    -0.3060 ca         1 5DX      -0.039900
     10 C11         -2.2420     0.7270     0.9170 ca         1 5DX      -0.088500
     11 C12         -0.8370     0.7920     0.9280 ca         1 5DX      -0.105000
     12 C13         -0.1210     0.8490    -0.2830 ca         1 5DX       0.106800
     13 N14          1.0170    -2.0130     1.9580 n8         1 5DX      -0.987200
     14 C15          1.7120    -2.5670     0.7350 c3         1 5DX       0.017500
     15 C16          1.4440    -1.6890    -0.5180 c3         1 5DX       0.004900
     16 C17          3.2820     0.1600    -0.4190 cc         1 5DX      -0.204000
     17 C18          1.9910    -0.2790    -0.4050 cd         1 5DX      -0.132300
     18 N19          1.2740     0.9170    -0.2730 na         1 5DX       0.182000
     19 N20          2.0380     2.0690    -0.2160 nd         1 5DX      -0.525800
     20 C21          3.2740     1.5750    -0.2990 cc         1 5DX       0.210500
     21 H5          -2.7910     0.6790     1.8550 ha         1 5DX       0.111000
     22 H6          -0.3010     0.7950     1.8740 ha         1 5DX       0.137000
     23 H7           0.0070    -2.1680     1.8500 hn         1 5DX       0.375500
     24 H8           1.2580    -2.5930     2.7700 hn         1 5DX       0.375500
     25 H10          2.7910    -2.5120     0.9360 h1         1 5DX       0.052700
     26 H11          1.9160    -2.1740    -1.3810 hc         1 5DX       0.047700
     27 H12          0.3690    -1.6910    -0.7340 hc         1 5DX       0.047700
     28 H13          4.1740    -0.4510    -0.5080 ha         1 5DX       0.142000
     29 H3          -0.2720     0.9000    -2.4450 ha         1 5DX       0.137000
     30 Br7         -4.8420     0.6310    -0.3220 br         1 5DX      -0.163100
     31 H4          -2.7620     0.7820    -2.4650 ha         1 5DX       0.111000
@<TRIPOS>BOND
     1     1     2 1   
     2     1     3 1   
     3     1    14 1   
     4     4     5 1   
     5     4     6 1   
     6     4    20 1   
     7     7     8 ar  
     8     7    12 ar  
     9     7    29 1   
    10     8     9 ar  
    11     8    31 1   
    12     9    10 ar  
    13     9    30 1   
    14    10    11 ar  
    15    10    21 1   
    16    11    12 ar  
    17    11    22 1   
    18    12    18 1   
    19    13    14 1   
    20    13    23 1   
    21    13    24 1   
    22    14    15 1   
    23    14    25 1   
    24    15    17 1   
    25    15    26 1   
    26    15    27 1   
    27    16    17 2   
    28    16    20 1   
    29    16    28 1   
    30    17    18 1   
    31    18    19 1   
    32    19    20 2   
@<TRIPOS>SUBSTRUCTURE
     1 5DX         1 TEMP              0 ****  ****    0 ROOT
