@<TRIPOS>MOLECULE
5DY
   40    41     1     0     0
SMALL
bcc


@<TRIPOS>ATOM
      1 N01         -1.3580    -1.9470    -1.5660 n8         1 5DY      -0.873800
      2 C02         -2.2680    -2.3690    -0.5170 c3         1 5DY       0.017500
      3 C03         -1.9960    -1.5600     0.7590 c3         1 5DY       0.005900
      4 C04         -2.1180    -0.0910     0.5470 cc         1 5DY      -0.083600
      5 C05         -3.2440     0.6980     0.5420 cd         1 5DY      -0.288300
      6 C06         -2.8030     1.9900     0.2030 cd         1 5DY       0.272800
      7 N07         -1.4950     1.9990     0.0150 nc         1 5DY      -0.525800
      8 N08         -1.0930     0.7440     0.2310 na         1 5DY       0.132300
      9 C09          0.2780     0.4310     0.0810 ca         1 5DY       0.089800
     10 C10          0.9100     0.6890    -1.1280 ca         1 5DY      -0.118500
     11 C11          2.2590     0.4110    -1.2710 ca         1 5DY      -0.126500
     12 C12          2.9970    -0.1430    -0.2270 ca         1 5DY      -0.122300
     13 C13          4.4690    -0.4030    -0.3760 c3         1 5DY      -0.016100
     14 C14          5.3040     0.7480     0.1900 c3         1 5DY      -0.112400
     15 C15          6.7790     0.4940    -0.0030 c3         1 5DY       0.162900
     16 F16          7.5230     1.5410     0.5440 f          1 5DY      -0.267300
     17 C17          2.3460    -0.3970     0.9770 ca         1 5DY      -0.126500
     18 C18          1.0000    -0.1040     1.1390 ca         1 5DY      -0.118500
     19 C19         -3.6400     3.2360     0.0690 c          1 5DY       0.842100
     20 O20         -3.0480     4.2940    -0.2120 o          1 5DY      -0.833800
     21 O21         -4.8630     3.0800     0.2570 o          1 5DY      -0.833800
     22 C22         -2.2750    -3.8850    -0.1890 c          1 5DY       0.900600
     23 O23         -1.5350    -4.6250    -0.8650 o          1 5DY      -0.851800
     24 O24         -3.0460    -4.2400     0.7270 o          1 5DY      -0.851800
     25 H1          -0.4080    -2.1440    -1.2740 hn         1 5DY       0.319300
     26 H2          -1.5040    -2.5400    -2.3740 hn         1 5DY       0.319300
     27 H4          -3.2850    -2.1170    -0.8460 h1         1 5DY       0.053700
     28 H5          -2.7110    -1.8610     1.5240 hc         1 5DY       0.046700
     29 H6          -1.0060    -1.8210     1.1420 hc         1 5DY       0.046700
     30 H7          -4.2520     0.3770     0.7490 ha         1 5DY       0.160000
     31 H8           0.3470     1.1030    -1.9540 ha         1 5DY       0.151500
     32 H9           2.7440     0.6180    -2.2180 ha         1 5DY       0.111000
     33 H10          4.7360    -1.3310     0.1370 hc         1 5DY       0.035700
     34 H11          4.7120    -0.5490    -1.4320 hc         1 5DY       0.035700
     35 H12          5.0220     1.6820    -0.3040 hc         1 5DY       0.060700
     36 H13          5.0880     0.8660     1.2550 hc         1 5DY       0.060700
     37 H14          7.0880    -0.4300     0.4900 h1         1 5DY       0.032700
     38 H15          7.0310     0.4220    -1.0630 h1         1 5DY       0.032700
     39 H16          2.8970    -0.8200     1.8080 ha         1 5DY       0.111000
     40 H17          0.5210    -0.2790     2.0940 ha         1 5DY       0.151500
@<TRIPOS>BOND
     1     1     2 1   
     2     1    25 1   
     3     1    26 1   
     4     2     3 1   
     5     2    22 1   
     6     2    27 1   
     7     3     4 1   
     8     3    28 1   
     9     3    29 1   
    10     4     5 2   
    11     4     8 1   
    12     5     6 1   
    13     5    30 1   
    14     6     7 2   
    15     6    19 1   
    16     7     8 1   
    17     8     9 1   
    18     9    10 ar  
    19     9    18 ar  
    20    10    11 ar  
    21    10    31 1   
    22    11    12 ar  
    23    11    32 1   
    24    12    13 1   
    25    12    17 ar  
    26    13    14 1   
    27    13    33 1   
    28    13    34 1   
    29    14    15 1   
    30    14    35 1   
    31    14    36 1   
    32    15    16 1   
    33    15    37 1   
    34    15    38 1   
    35    17    18 ar  
    36    17    39 1   
    37    18    40 1   
    38    19    20 1   
    39    19    21 1   
    40    22    23 1   
    41    22    24 1   
@<TRIPOS>SUBSTRUCTURE
     1 5DY         1 TEMP              0 ****  ****    0 ROOT
