@<TRIPOS>MOLECULE
5DY
   40    41     1     0     0
SMALL
No Charge or Current Charge


@<TRIPOS>ATOM
      1 N01         -1.5420    -2.0790    -1.8470 n8         1 5DY      -0.984200
      2 C02         -2.3750    -2.4130    -0.6300 c3         1 5DY       0.017500
      3 C03         -1.9130    -1.6060     0.6140 c3         1 5DY       0.005900
      4 C04         -2.0610    -0.1080     0.4660 cc         1 5DY      -0.134300
      5 C05         -3.1720     0.6840     0.5410 cd         1 5DY      -0.205000
      6 C06         -2.7880     2.0410     0.3300 cd         1 5DY       0.207500
      7 N07         -1.4700     2.1400     0.1310 nc         1 5DY      -0.525800
      8 N08         -1.0650     0.8270     0.2100 na         1 5DY       0.183000
      9 C09          0.2940     0.5160     0.1170 ca         1 5DY       0.089800
     10 C10          0.9540     0.5840    -1.1250 ca         1 5DY      -0.100500
     11 C11          2.3230     0.2760    -1.2180 ca         1 5DY      -0.108500
     12 C12          3.0460    -0.1020    -0.0710 ca         1 5DY      -0.122300
     13 C13          4.5290    -0.4310    -0.1710 c3         1 5DY      -0.016100
     14 C14          5.4130     0.8150     0.0450 c3         1 5DY      -0.112400
     15 C15          6.9190     0.5100    -0.0520 c3         1 5DY       0.181600
     16 F16          7.6330     1.6440     0.1470 f          1 5DY      -0.286000
     17 C17          2.3870    -0.1640     1.1720 ca         1 5DY      -0.108500
     18 C18          1.0190     0.1450     1.2660 ca         1 5DY      -0.100500
     19 C19         -3.7450     3.2290     0.3350 c          1 5DY       0.631500
     20 O20         -3.3130     4.3620     0.1450 o          1 5DY      -0.728500
     21 O21         -4.9390     3.0250     0.5310 o          1 5DY      -0.728500
     22 C22         -2.4760    -3.9490    -0.2640 c          1 5DY       0.690000
     23 O23         -1.4410    -4.5960    -0.1660 o          1 5DY      -0.746500
     24 O24         -3.5870    -4.4590    -0.2010 o          1 5DY      -0.746500
     25 H1          -0.6020    -2.4670    -1.7090 hn         1 5DY       0.374500
     26 H2          -1.9000    -2.6070    -2.6510 hn         1 5DY       0.374500
     27 H4          -3.4020    -2.0900    -0.8530 h1         1 5DY       0.053700
     28 H5          -2.5100    -1.9290     1.4760 hc         1 5DY       0.046700
     29 H6          -0.8780    -1.8750     0.8530 hc         1 5DY       0.046700
     30 H7          -4.1830     0.3400     0.7280 ha         1 5DY       0.142000
     31 H8           0.4020     0.8730    -2.0150 ha         1 5DY       0.133500
     32 H9           2.8210     0.3330    -2.1840 ha         1 5DY       0.093000
     33 H10          4.7960    -1.1950     0.5700 hc         1 5DY       0.035700
     34 H11          4.7530    -0.8650    -1.1530 hc         1 5DY       0.035700
     35 H12          5.1530     1.5760    -0.7010 hc         1 5DY       0.060700
     36 H13          5.1970     1.2450     1.0310 hc         1 5DY       0.060700
     37 H14          7.2080    -0.2250     0.7110 h1         1 5DY       0.032700
     38 H15          7.1640     0.1100    -1.0440 h1         1 5DY       0.032700
     39 H16          2.9360    -0.4490     2.0670 ha         1 5DY       0.093000
     40 H17          0.5190     0.0970     2.2300 ha         1 5DY       0.133500
@<TRIPOS>BOND
     1     1     2 1   
     2     1    25 1   
     3     1    26 1   
     4     2     3 1   
     5     2    22 1   
     6     2    27 1   
     7     3     4 1   
     8     3    28 1   
     9     3    29 1   
    10     4     5 2   
    11     4     8 1   
    12     5     6 1   
    13     5    30 1   
    14     6     7 2   
    15     6    19 1   
    16     7     8 1   
    17     8     9 1   
    18     9    10 ar  
    19     9    18 ar  
    20    10    11 ar  
    21    10    31 1   
    22    11    12 ar  
    23    11    32 1   
    24    12    13 1   
    25    12    17 ar  
    26    13    14 1   
    27    13    33 1   
    28    13    34 1   
    29    14    15 1   
    30    14    35 1   
    31    14    36 1   
    32    15    16 1   
    33    15    37 1   
    34    15    38 1   
    35    17    18 ar  
    36    17    39 1   
    37    18    40 1   
    38    19    20 1   
    39    19    21 1   
    40    22    23 1   
    41    22    24 1   
@<TRIPOS>SUBSTRUCTURE
     1 5DY         1 TEMP              0 ****  ****    0 ROOT
