@<TRIPOS>MOLECULE
5DZ
   31    32     1     0     0
SMALL
bcc


@<TRIPOS>ATOM
      1 C01          1.5540    -3.5740    -0.3180 c          1 5DZ       0.900600
      2 O02          2.6620    -3.5180    -0.8840 o          1 5DZ      -0.850800
      3 O03          1.1660    -4.4590     0.4730 o          1 5DZ      -0.850800
      4 C04         -4.2260     0.8410     0.0140 c          1 5DZ       0.842100
      5 O05         -4.4520     2.0460    -0.1980 o          1 5DZ      -0.833300
      6 O06         -5.0600    -0.0830     0.0990 o          1 5DZ      -0.833300
      7 C08          0.9270     1.9170    -0.8920 ca         1 5DZ      -0.094500
      8 C09          2.1380     2.5840    -0.9610 ca         1 5DZ      -0.174500
      9 C10          2.9800     2.5470     0.1360 ca         1 5DZ       0.094900
     10 C11          2.6450     1.8800     1.2970 ca         1 5DZ      -0.174500
     11 C12          1.4200     1.2300     1.3610 ca         1 5DZ      -0.094500
     12 C13          0.5680     1.2390     0.2660 ca         1 5DZ       0.072800
     13 N14          0.9600    -1.4290    -1.5620 n8         1 5DZ      -0.875800
     14 C15          0.5350    -2.4420    -0.6150 c3         1 5DZ       0.019500
     15 C16          0.1100    -1.7870     0.7090 c3         1 5DZ       0.005900
     16 C17         -2.2970    -0.8650     0.4580 cc         1 5DZ      -0.290300
     17 C18         -0.9300    -0.7380     0.5310 cd         1 5DZ      -0.080600
     18 N19         -0.6810     0.5820     0.3220 na         1 5DZ       0.132300
     19 N20         -1.7930     1.2930     0.1080 nd         1 5DZ      -0.526800
     20 C21         -2.7870     0.4270     0.1890 cc         1 5DZ       0.273800
     21 H5           3.3170     1.8780     2.1450 ha         1 5DZ       0.130000
     22 H6           1.1300     0.7280     2.2750 ha         1 5DZ       0.153500
     23 H7           1.8250    -1.0100    -1.2380 hn         1 5DZ       0.319800
     24 H8           1.2100    -1.8850    -2.4310 hn         1 5DZ       0.319800
     25 H10         -0.3590    -2.9190    -1.0340 h1         1 5DZ       0.051700
     26 H11         -0.2900    -2.5620     1.3620 hc         1 5DZ       0.046200
     27 H12          0.9910    -1.3860     1.2160 hc         1 5DZ       0.046200
     28 H13         -2.8650    -1.7740     0.5760 ha         1 5DZ       0.159000
     29 H3           0.2620     1.9180    -1.7440 ha         1 5DZ       0.153500
     30 F07          4.1590     3.1850     0.0690 f          1 5DZ      -0.172900
     31 H4           2.4270     3.1170    -1.8570 ha         1 5DZ       0.130000
@<TRIPOS>BOND
     1     1     2 1   
     2     1     3 1   
     3     1    14 1   
     4     4     5 1   
     5     4     6 1   
     6     4    20 1   
     7     7     8 ar  
     8     7    12 ar  
     9     7    29 1   
    10     8     9 ar  
    11     8    31 1   
    12     9    10 ar  
    13     9    30 1   
    14    10    11 ar  
    15    10    21 1   
    16    11    12 ar  
    17    11    22 1   
    18    12    18 1   
    19    13    14 1   
    20    13    23 1   
    21    13    24 1   
    22    14    15 1   
    23    14    25 1   
    24    15    17 1   
    25    15    26 1   
    26    15    27 1   
    27    16    17 2   
    28    16    20 1   
    29    16    28 1   
    30    17    18 1   
    31    18    19 1   
    32    19    20 2   
@<TRIPOS>SUBSTRUCTURE
     1 5DZ         1 TEMP              0 ****  ****    0 ROOT
