@<TRIPOS>MOLECULE
5DZ
   31    32     1     0     0
SMALL
No Charge or Current Charge


@<TRIPOS>ATOM
      1 C01          1.4090    -3.6990    -0.4400 c          1 5DZ       0.690000
      2 O02          2.6160    -3.4980    -0.3870 o          1 5DZ      -0.745500
      3 O03          0.9190    -4.8180    -0.3700 o          1 5DZ      -0.745500
      4 C04         -4.3260     0.6250     0.3190 c          1 5DZ       0.631500
      5 O05         -4.8360     1.7380     0.2360 o          1 5DZ      -0.728000
      6 O06         -5.0180    -0.3850     0.3950 o          1 5DZ      -0.728000
      7 C08          1.2090     1.6700    -0.8950 ca         1 5DZ      -0.076500
      8 C09          2.4910     2.2510    -0.8790 ca         1 5DZ      -0.156500
      9 C10          3.1030     2.5560     0.3470 ca         1 5DZ       0.130000
     10 C11          2.4440     2.2870     1.5570 ca         1 5DZ      -0.156500
     11 C12          1.1620     1.7060     1.5410 ca         1 5DZ      -0.076500
     12 C13          0.5420     1.3910     0.3140 ca         1 5DZ       0.072800
     13 N14          0.8120    -1.6620    -1.9780 n8         1 5DZ      -0.986200
     14 C15          0.4520    -2.4790    -0.7570 c3         1 5DZ       0.019500
     15 C16          0.3050    -1.5850     0.5030 c3         1 5DZ       0.005900
     16 C17         -2.1730    -0.7720     0.4260 cc         1 5DZ      -0.207000
     17 C18         -0.8240    -0.5760     0.4090 cd         1 5DZ      -0.131300
     18 N19         -0.7290     0.8170     0.2990 na         1 5DZ       0.183000
     19 N20         -1.9330     1.4970     0.2580 nd         1 5DZ      -0.526800
     20 C21         -2.8090     0.4930     0.3280 cc         1 5DZ       0.208500
     21 H5           2.9230     2.5270     2.5020 ha         1 5DZ       0.112000
     22 H6           0.6490     1.4970     2.4770 ha         1 5DZ       0.135500
     23 H7           1.7830    -1.3450    -1.8750 hn         1 5DZ       0.375000
     24 H8           0.8520    -2.2830    -2.7950 hn         1 5DZ       0.375000
     25 H10         -0.5370    -2.9170    -0.9530 h1         1 5DZ       0.051700
     26 H11          0.1140    -2.2370     1.3640 hc         1 5DZ       0.046200
     27 H12          1.2660    -1.1000     0.7130 hc         1 5DZ       0.046200
     28 H13         -2.6890    -1.7230     0.5020 ha         1 5DZ       0.141000
     29 H3           0.7320     1.4310    -1.8430 ha         1 5DZ       0.135500
     30 F07          4.3320     3.1150     0.3630 f          1 5DZ      -0.208000
     31 H4           3.0060     2.4640    -1.8110 ha         1 5DZ       0.112000
@<TRIPOS>BOND
     1     1     2 1   
     2     1     3 1   
     3     1    14 1   
     4     4     5 1   
     5     4     6 1   
     6     4    20 1   
     7     7     8 ar  
     8     7    12 ar  
     9     7    29 1   
    10     8     9 ar  
    11     8    31 1   
    12     9    10 ar  
    13     9    30 1   
    14    10    11 ar  
    15    10    21 1   
    16    11    12 ar  
    17    11    22 1   
    18    12    18 1   
    19    13    14 1   
    20    13    23 1   
    21    13    24 1   
    22    14    15 1   
    23    14    25 1   
    24    15    17 1   
    25    15    26 1   
    26    15    27 1   
    27    16    17 2   
    28    16    20 1   
    29    16    28 1   
    30    17    18 1   
    31    18    19 1   
    32    19    20 2   
@<TRIPOS>SUBSTRUCTURE
     1 5DZ         1 TEMP              0 ****  ****    0 ROOT
