@<TRIPOS>MOLECULE
5E0
   31    32     1     0     0
SMALL
abcg2


@<TRIPOS>ATOM
      1 C10         -0.2020    -2.4400    -0.9260 ca         1 5E0      -0.099500
      2 C13         -1.7530    -3.1450     1.2700 ca         1 5E0      -0.118500
      3 C14         -0.9220    -2.0350     1.3390 ca         1 5E0      -0.099500
      4 N01         -1.6420     0.6410    -1.5860 n8         1 5E0      -0.984200
      5 C02         -1.6870     1.7140    -0.6100 c3         1 5E0       0.019500
      6 C03         -1.0350     1.2480     0.7020 c3         1 5E0       0.005900
      7 C04          0.3540     0.7480     0.5080 cc         1 5E0      -0.132300
      8 C05          1.5350     1.4480     0.4360 cd         1 5E0      -0.208000
      9 C06          2.5290     0.4910     0.1570 cd         1 5E0       0.205500
     10 N07          2.0000    -0.7170     0.0700 nc         1 5E0      -0.524800
     11 N08          0.6930    -0.5510     0.2930 na         1 5E0       0.183000
     12 C09         -0.1580    -1.6790     0.2350 ca         1 5E0       0.082800
     13 C11         -1.0210    -3.5570    -0.9820 ca         1 5E0      -0.118500
     14 C12         -1.8030    -3.9090     0.1120 ca         1 5E0      -0.143000
     15 O16          4.3690     1.9200     0.0820 o          1 5E0      -0.730000
     16 O17          4.7260    -0.2650    -0.2180 o          1 5E0      -0.730000
     17 C18         -3.0920     2.2870    -0.2890 c          1 5E0       0.689000
     18 O19         -4.0800     1.6860    -0.7510 o          1 5E0      -0.747000
     19 O20         -3.1100     3.3120     0.4250 o          1 5E0      -0.747000
     20 H1           0.3940    -2.1500    -1.7810 ha         1 5E0       0.130500
     21 H2          -2.3510    -3.4190     2.1290 ha         1 5E0       0.092000
     22 H3          -0.8610    -1.4560     2.2510 ha         1 5E0       0.130500
     23 H4          -2.2360    -0.1160    -1.2670 hn         1 5E0       0.374500
     24 H5          -2.0790     0.9630    -2.4420 hn         1 5E0       0.374500
     25 H7          -1.0770     2.5390    -0.9980 h1         1 5E0       0.052700
     26 H8          -1.0110     2.0850     1.3980 hc         1 5E0       0.045700
     27 H9          -1.6650     0.4820     1.1600 hc         1 5E0       0.045700
     28 H10          1.6600     2.5120     0.5540 ha         1 5E0       0.140000
     29 H11         -1.0520    -4.1530    -1.8850 ha         1 5E0       0.092000
     30 H12         -2.4470    -4.7760     0.0610 ha         1 5E0       0.085000
     31 C15          4.0080     0.7300    -0.0100 c          1 5E0       0.631500
@<TRIPOS>BOND
     1     1    12 ar  
     2     1    13 ar  
     3     1    20 1   
     4     2     3 ar  
     5     2    14 ar  
     6     2    21 1   
     7     3    12 ar  
     8     3    22 1   
     9     4     5 1   
    10     4    23 1   
    11     4    24 1   
    12     5     6 1   
    13     5    17 1   
    14     5    25 1   
    15     6     7 1   
    16     6    26 1   
    17     6    27 1   
    18     7     8 2   
    19     7    11 1   
    20     8     9 1   
    21     8    28 1   
    22     9    10 2   
    23     9    31 1   
    24    10    11 1   
    25    11    12 1   
    26    13    14 ar  
    27    13    29 1   
    28    14    30 1   
    29    15    31 1   
    30    16    31 1   
    31    17    18 1   
    32    17    19 1   
@<TRIPOS>SUBSTRUCTURE
     1 5E0         1 TEMP              0 ****  ****    0 ROOT
