@<TRIPOS>MOLECULE
5E0
   31    32     1     0     0
SMALL
No Charge or Current Charge


@<TRIPOS>ATOM
      1 C10         -0.3250    -2.4700    -0.9680 ca         1 5E0      -0.099500
      2 C13         -1.5250    -3.3460     1.4180 ca         1 5E0      -0.118500
      3 C14         -0.6880    -2.2160     1.4250 ca         1 5E0      -0.099500
      4 N01         -1.7750     0.8460    -1.8330 n8         1 5E0      -0.984200
      5 C02         -1.7090     1.8100    -0.6700 c3         1 5E0       0.019500
      6 C03         -1.1210     1.1320     0.5970 c3         1 5E0       0.005900
      7 C04          0.3040     0.6520     0.4350 cc         1 5E0      -0.132300
      8 C05          1.4790     1.3480     0.4370 cd         1 5E0      -0.208000
      9 C06          2.5590     0.4370     0.2460 cd         1 5E0       0.205500
     10 N07          2.1120    -0.8170     0.1300 nc         1 5E0      -0.524800
     11 N08          0.7490    -0.6500     0.2390 na         1 5E0       0.183000
     12 C09         -0.0860    -1.7700     0.2310 ca         1 5E0       0.082800
     13 C11         -1.1620    -3.6000    -0.9750 ca         1 5E0      -0.118500
     14 C12         -1.7630    -4.0360     0.2180 ca         1 5E0      -0.143000
     15 O16          4.3340     2.0110     0.3100 o          1 5E0      -0.730000
     16 O17          4.8870    -0.0360     0.0220 o          1 5E0      -0.730000
     17 C18         -3.0620     2.5440    -0.3060 c          1 5E0       0.689000
     18 O19         -4.0690     1.8670    -0.1400 o          1 5E0      -0.747000
     19 O20         -3.0780     3.7670    -0.3120 o          1 5E0      -0.747000
     20 H1           0.1380    -2.1320    -1.8930 ha         1 5E0       0.130500
     21 H2          -1.9880    -3.6850     2.3420 ha         1 5E0       0.092000
     22 H3          -0.5040    -1.6850     2.3570 ha         1 5E0       0.130500
     23 H4          -2.5060     0.1530    -1.6350 hn         1 5E0       0.374500
     24 H5          -2.1380     1.3410    -2.6570 hn         1 5E0       0.374500
     25 H7          -1.0050     2.6030    -0.9600 h1         1 5E0       0.052700
     26 H8          -1.1500     1.8560     1.4200 hc         1 5E0       0.045700
     27 H9          -1.7780     0.3090     0.9020 hc         1 5E0       0.045700
     28 H10          1.5790     2.4210     0.5620 ha         1 5E0       0.140000
     29 H11         -1.3450    -4.1350    -1.9040 ha         1 5E0       0.092000
     30 H12         -2.4100    -4.9100     0.2120 ha         1 5E0       0.085000
     31 C15          4.0320     0.8290     0.1870 c          1 5E0       0.631500
@<TRIPOS>BOND
     1     1    12 ar  
     2     1    13 ar  
     3     1    20 1   
     4     2     3 ar  
     5     2    14 ar  
     6     2    21 1   
     7     3    12 ar  
     8     3    22 1   
     9     4     5 1   
    10     4    23 1   
    11     4    24 1   
    12     5     6 1   
    13     5    17 1   
    14     5    25 1   
    15     6     7 1   
    16     6    26 1   
    17     6    27 1   
    18     7     8 2   
    19     7    11 1   
    20     8     9 1   
    21     8    28 1   
    22     9    10 2   
    23     9    31 1   
    24    10    11 1   
    25    11    12 1   
    26    13    14 ar  
    27    13    29 1   
    28    14    30 1   
    29    15    31 1   
    30    16    31 1   
    31    17    18 1   
    32    17    19 1   
@<TRIPOS>SUBSTRUCTURE
     1 5E0         1 TEMP              0 ****  ****    0 ROOT
