@<TRIPOS>MOLECULE
5E1
   29    31     1     0     0
SMALL
bcc


@<TRIPOS>ATOM
      1 BR          -4.5140    -0.8890    -0.0140 br         1 5E1      -0.134100
      2 C8          -3.1210     0.3900     0.0030 ca         1 5E1      -0.027900
      3 C7          -3.4430     1.7400     0.0070 ca         1 5E1      -0.115000
      4 C6          -2.4050     2.6600     0.0170 ca         1 5E1      -0.143000
      5 C5          -1.0830     2.2420     0.0300 ca         1 5E1      -0.100000
      6 C9          -1.8090    -0.0460     0.0130 ca         1 5E1      -0.075000
      7 C4          -0.7660     0.8840     0.0300 cp         1 5E1      -0.116500
      8 C3           0.6350     0.3950     0.0390 cp         1 5E1       0.463800
      9 C2           1.7340     1.2830     0.0150 ca         1 5E1      -0.243300
     10 N            0.8030    -0.9040     0.0580 nb         1 5E1      -0.713000
     11 C10          2.0510    -1.4110     0.0500 ca         1 5E1       0.391600
     12 C15          3.2160    -0.5970     0.0560 ca         1 5E1      -0.117300
     13 C1           3.0210     0.8140     0.0440 ca         1 5E1      -0.075600
     14 C            4.1570     1.8380     0.0860 c          1 5E1       0.925200
     15 O1           3.9660     2.8790    -0.5640 o          1 5E1      -0.811300
     16 O            5.1420     1.5500     0.7880 o          1 5E1      -0.811300
     17 C14          4.4810    -1.2340     0.0230 ca         1 5E1      -0.061000
     18 C13          4.5770    -2.5990    -0.0080 ca         1 5E1      -0.174000
     19 C12          3.4190    -3.4030    -0.0010 ca         1 5E1      -0.133000
     20 C11          2.1830    -2.8210     0.0290 ca         1 5E1      -0.190300
     21 H1          -4.4710     2.0750     0.0180 ha         1 5E1       0.133000
     22 H2          -2.6320     3.7180     0.0070 ha         1 5E1       0.126000
     23 H3          -0.3090     2.9950     0.0420 ha         1 5E1       0.149000
     24 H4          -1.5730    -1.1010     0.0080 ha         1 5E1       0.171000
     25 H5           1.5800     2.3520    -0.0240 ha         1 5E1       0.153000
     26 H7           5.3740    -0.6300     0.0340 ha         1 5E1       0.173000
     27 H8           5.5520    -3.0680    -0.0540 ha         1 5E1       0.115000
     28 H9           3.5130    -4.4810    -0.0230 ha         1 5E1       0.111000
     29 H10          1.2810    -3.4200     0.0370 ha         1 5E1       0.127000
@<TRIPOS>BOND
     1     1     2 1   
     2     2     3 ar  
     3     2     6 ar  
     4     3     4 ar  
     5     3    21 1   
     6     4     5 ar  
     7     4    22 1   
     8     5     7 ar  
     9     5    23 1   
    10     6     7 ar  
    11     6    24 1   
    12     7     8 1   
    13     8     9 ar  
    14     8    10 ar  
    15     9    13 ar  
    16     9    25 1   
    17    10    11 ar  
    18    11    12 ar  
    19    11    20 ar  
    20    12    13 ar  
    21    12    17 ar  
    22    13    14 1   
    23    14    15 1   
    24    14    16 1   
    25    17    18 ar  
    26    17    26 1   
    27    18    19 ar  
    28    18    27 1   
    29    19    20 ar  
    30    19    28 1   
    31    20    29 1   
@<TRIPOS>SUBSTRUCTURE
     1 5E1         1 TEMP              0 ****  ****    0 ROOT
