@<TRIPOS>MOLECULE
5E1
   29    31     1     0     0
SMALL
No Charge or Current Charge


@<TRIPOS>ATOM
      1 Br          -4.6270    -0.7380     0.7940 br         1 5E1      -0.134100
      2 C8          -3.2110     0.4620     0.3310 ca         1 5E1      -0.027900
      3 C7          -3.5070     1.7850    -0.0250 ca         1 5E1      -0.097000
      4 C6          -2.4660     2.6620    -0.3660 ca         1 5E1      -0.125000
      5 C5          -1.1330     2.2170    -0.3490 ca         1 5E1      -0.082000
      6 C9          -1.8800     0.0130     0.3480 ca         1 5E1      -0.057000
      7 C4          -0.8030     0.8810     0.0130 cp         1 5E1      -0.116500
      8 C3           0.6250     0.3970     0.0350 cp         1 5E1       0.398500
      9 C2           1.7220     1.2750     0.1870 ca         1 5E1      -0.160000
     10 N            0.8190    -0.9350    -0.0820 nb         1 5E1      -0.713000
     11 C10          2.0730    -1.4420    -0.0820 ca         1 5E1       0.261000
     12 C15          3.2220    -0.6170     0.0550 ca         1 5E1      -0.052000
     13 C1           3.0420     0.7810     0.2060 ca         1 5E1      -0.075600
     14 C            4.1890     1.7500     0.3870 c          1 5E1       0.714600
     15 O1           4.2710     2.6900    -0.3900 o          1 5E1      -0.706000
     16 O            4.9370     1.5950     1.3420 o          1 5E1      -0.706000
     17 C14          4.5100    -1.2040     0.0260 ca         1 5E1      -0.043000
     18 C13          4.6560    -2.5930    -0.1220 ca         1 5E1      -0.156000
     19 C12          3.5240    -3.4080    -0.2440 ca         1 5E1      -0.115000
     20 C11          2.2440    -2.8320    -0.2250 ca         1 5E1      -0.107000
     21 H1          -4.5390     2.1310    -0.0380 ha         1 5E1       0.115000
     22 H2          -2.6920     3.6880    -0.6490 ha         1 5E1       0.108000
     23 H3          -0.3540     2.9180    -0.6380 ha         1 5E1       0.131000
     24 H4          -1.6810    -1.0180     0.6330 ha         1 5E1       0.153000
     25 H5           1.5550     2.3400     0.3140 ha         1 5E1       0.135000
     26 H7           5.4070    -0.5960     0.1120 ha         1 5E1       0.155000
     27 H8           5.6490    -3.0350    -0.1410 ha         1 5E1       0.097000
     28 H9           3.6350    -4.4840    -0.3580 ha         1 5E1       0.093000
     29 H10          1.3700    -3.4710    -0.3270 ha         1 5E1       0.109000
@<TRIPOS>BOND
     1     1     2 1   
     2     2     3 ar  
     3     2     6 ar  
     4     3     4 ar  
     5     3    21 1   
     6     4     5 ar  
     7     4    22 1   
     8     5     7 ar  
     9     5    23 1   
    10     6     7 ar  
    11     6    24 1   
    12     7     8 1   
    13     8     9 ar  
    14     8    10 ar  
    15     9    13 ar  
    16     9    25 1   
    17    10    11 ar  
    18    11    12 ar  
    19    11    20 ar  
    20    12    13 ar  
    21    12    17 ar  
    22    13    14 1   
    23    14    15 1   
    24    14    16 1   
    25    17    18 ar  
    26    17    26 1   
    27    18    19 ar  
    28    18    27 1   
    29    19    20 ar  
    30    19    28 1   
    31    20    29 1   
@<TRIPOS>SUBSTRUCTURE
     1 5E1         1 TEMP              0 ****  ****    0 ROOT
