@<TRIPOS>MOLECULE
5E2
   29    31     1     0     0
SMALL
No Charge or Current Charge


@<TRIPOS>ATOM
      1 C1          -2.2640    -1.4620    -0.1350 ca         1 5E2      -0.076600
      2 C6           3.4680    -2.4840     0.4360 ca         1 5E2      -0.124000
      3 C7           4.3640    -1.4640     0.0840 ca         1 5E2      -0.095000
      4 C9           2.4860     0.0380    -0.3020 ca         1 5E2      -0.056000
      5 C5           2.0820    -2.2470     0.4170 ca         1 5E2      -0.080000
      6 C4           1.5540    -0.9800     0.0430 cp         1 5E2      -0.120500
      7 C3           0.0700    -0.7170     0.0190 cp         1 5E2       0.403500
      8 C12         -3.3620     2.6230     0.1910 ca         1 5E2      -0.109000
      9 C2          -0.8840    -1.7510    -0.1220 ca         1 5E2      -0.157000
     10 C13         -4.3580     1.6490     0.0500 ca         1 5E2       0.081000
     11 C11         -2.0120     2.2400     0.2170 ca         1 5E2      -0.099000
     12 C14         -4.0090     0.2940    -0.0590 ca         1 5E2      -0.032000
     13 C15         -2.6510    -0.1020    -0.0230 ca         1 5E2      -0.050000
     14 C           -3.2530    -2.5980    -0.2710 c          1 5E2       0.715600
     15 O1          -3.1120    -3.3700    -1.2090 o          1 5E2      -0.702500
     16 O           -4.1040    -2.7370     0.5960 o          1 5E2      -0.702500
     17 C10         -1.6370     0.8860     0.1080 ca         1 5E2       0.260000
     18 N           -0.3230     0.5720     0.1270 nb         1 5E2      -0.710000
     19 C8           3.8700    -0.2040    -0.2830 ca         1 5E2      -0.028900
     20 Br           5.0880     1.1920    -0.7610 br         1 5E2      -0.131100
     21 H1           3.8470    -3.4610     0.7290 ha         1 5E2       0.110000
     22 H2           5.4360    -1.6490     0.1000 ha         1 5E2       0.116000
     23 H3           2.1330     1.0240    -0.5960 ha         1 5E2       0.152000
     24 H4           1.4190    -3.0550     0.7140 ha         1 5E2       0.132000
     25 H5          -3.6340     3.6720     0.2750 ha         1 5E2       0.111000
     26 H6          -0.5590    -2.7810    -0.2300 ha         1 5E2       0.140000
     27 H7          -1.2430     3.0010     0.3210 ha         1 5E2       0.115000
     28 H8          -4.8080    -0.4330    -0.1770 ha         1 5E2       0.177000
     29 Cl          -6.0500     2.1270     0.0060 cl         1 5E2      -0.240000
@<TRIPOS>BOND
     1     1     9 ar  
     2     1    13 ar  
     3     1    14 1   
     4     2     3 ar  
     5     2     5 ar  
     6     2    21 1   
     7     3    19 ar  
     8     3    22 1   
     9     4     6 ar  
    10     4    19 ar  
    11     4    23 1   
    12     5     6 ar  
    13     5    24 1   
    14     6     7 1   
    15     7     9 ar  
    16     7    18 ar  
    17     8    10 ar  
    18     8    11 ar  
    19     8    25 1   
    20     9    26 1   
    21    10    12 ar  
    22    10    29 1   
    23    11    17 ar  
    24    11    27 1   
    25    12    13 ar  
    26    12    28 1   
    27    13    17 ar  
    28    14    15 1   
    29    14    16 1   
    30    17    18 ar  
    31    19    20 1   
@<TRIPOS>SUBSTRUCTURE
     1 5E2         1 TEMP              0 ****  ****    0 ROOT
