@<TRIPOS>MOLECULE
5E2
   29    31     1     0     0
SMALL
bcc


@<TRIPOS>ATOM
      1 C1          -2.2360    -1.4850    -0.0080 ca         1 5E2      -0.076600
      2 C6           3.3990    -2.4960     0.0710 ca         1 5E2      -0.142000
      3 C7           4.2890    -1.4330     0.0390 ca         1 5E2      -0.113000
      4 C9           2.4110     0.0920    -0.0110 ca         1 5E2      -0.074000
      5 C5           2.0300    -2.2770     0.0620 ca         1 5E2      -0.098000
      6 C4           1.5170    -0.9810     0.0200 cp         1 5E2      -0.120500
      7 C3           0.0590    -0.7040     0.0120 cp         1 5E2       0.468800
      8 C12         -3.2650     2.6300    -0.0110 ca         1 5E2      -0.127000
      9 C2          -0.8930    -1.7490    -0.0270 ca         1 5E2      -0.240300
     10 C13         -4.2740     1.6480    -0.0190 ca         1 5E2      -0.010600
     11 C11         -1.9590     2.2340     0.0150 ca         1 5E2      -0.182300
     12 C14         -3.9890     0.3120    -0.0010 ca         1 5E2      -0.050000
     13 C15         -2.6420    -0.1190     0.0180 ca         1 5E2      -0.115300
     14 C           -3.2000    -2.6780    -0.0030 c          1 5E2       0.926200
     15 O1          -2.7790    -3.7090    -0.5510 o          1 5E2      -0.807800
     16 O           -4.2930    -2.5160     0.5690 o          1 5E2      -0.807800
     17 C10         -1.6140     0.8620     0.0220 ca         1 5E2       0.390600
     18 N           -0.3030     0.5540     0.0360 nb         1 5E2      -0.710000
     19 C8           3.7730    -0.1450    -0.0020 ca         1 5E2      -0.028900
     20 BR           4.9630     1.3230    -0.0470 br         1 5E2      -0.131100
     21 H1           3.7800    -3.5080     0.1040 ha         1 5E2       0.128000
     22 H2           5.3550    -1.6120     0.0450 ha         1 5E2       0.134000
     23 H3           2.0220     1.1010    -0.0440 ha         1 5E2       0.170000
     24 H4           1.3730    -3.1350     0.0910 ha         1 5E2       0.150000
     25 H5          -3.5250     3.6800    -0.0230 ha         1 5E2       0.129000
     26 H6          -0.5750    -2.7800    -0.0720 ha         1 5E2       0.158000
     27 H7          -1.1610     2.9650     0.0220 ha         1 5E2       0.133000
     28 H8          -4.7810    -0.4190     0.0070 ha         1 5E2       0.195000
     29 CL          -5.9280     2.1690    -0.0490 cl         1 5E2      -0.148400
@<TRIPOS>BOND
     1     1     9 ar  
     2     1    13 ar  
     3     1    14 1   
     4     2     3 ar  
     5     2     5 ar  
     6     2    21 1   
     7     3    19 ar  
     8     3    22 1   
     9     4     6 ar  
    10     4    19 ar  
    11     4    23 1   
    12     5     6 ar  
    13     5    24 1   
    14     6     7 1   
    15     7     9 ar  
    16     7    18 ar  
    17     8    10 ar  
    18     8    11 ar  
    19     8    25 1   
    20     9    26 1   
    21    10    12 ar  
    22    10    29 1   
    23    11    17 ar  
    24    11    27 1   
    25    12    13 ar  
    26    12    28 1   
    27    13    17 ar  
    28    14    15 1   
    29    14    16 1   
    30    17    18 ar  
    31    19    20 1   
@<TRIPOS>SUBSTRUCTURE
     1 5E2         1 TEMP              0 ****  ****    0 ROOT
