@<TRIPOS>MOLECULE
5E3
   43    45     1     0     0
SMALL
abcg2


@<TRIPOS>ATOM
      1 CAX        -13.8860     9.5710    -4.1840 c3         1 5E3       0.151900
      2 OAM        -12.7450     9.4410    -3.3320 os         1 5E3      -0.358100
      3 CAB        -12.7010     8.4190    -2.4500 ca         1 5E3       0.157100
      4 CAC        -13.7130     7.4800    -2.3010 ca         1 5E3      -0.201000
      5 CAD        -13.5000     6.4990    -1.3410 ca         1 5E3       0.118100
      6 OAG        -14.3320     5.4810    -1.0250 os         1 5E3      -0.139100
      7 NAH        -13.7160     4.7250     0.0170 nc         1 5E3      -0.289700
      8 CAI        -12.5740     5.2920     0.2870 cd         1 5E3       0.406900
      9 CAJ        -11.6430     4.7700     1.3320 c3         1 5E3      -0.101700
     10 CAK        -12.1270     3.5310     2.0790 c3         1 5E3      -0.085100
     11 CAE        -12.3630     6.4410    -0.5460 ca         1 5E3      -0.268900
     12 CAF        -11.3550     7.3990    -0.6890 ca         1 5E3      -0.023000
     13 CAA        -11.5180     8.3750    -1.6510 ca         1 5E3       0.203000
     14 NAL        -10.5380     9.3770    -1.8910 nu         1 5E3      -0.848100
     15 SAN         -8.9460     8.9640    -2.1240 sy         1 5E3       1.182600
     16 OAO         -8.4520     8.3870    -0.8980 o          1 5E3      -0.540000
     17 OAP         -8.3150    10.1590    -2.6250 o          1 5E3      -0.540000
     18 CAQ         -8.9500     7.6860    -3.3440 ca         1 5E3      -0.348500
     19 CAV         -8.4430     6.4340    -3.0120 ca         1 5E3       0.026000
     20 CAU         -8.4770     5.4020    -3.9380 ca         1 5E3      -0.165000
     21 CAT         -9.0340     5.6300    -5.1910 ca         1 5E3      -0.016000
     22 CAS         -9.5550     6.8740    -5.5320 ca         1 5E3      -0.214000
     23 CAR         -9.5170     7.9210    -4.6110 ca         1 5E3       0.226100
     24 OAY        -10.0020     9.1550    -4.8460 os         1 5E3      -0.358100
     25 CAZ        -10.7360     9.3920    -6.0510 c3         1 5E3       0.159900
     26 H1         -13.6950    10.4450    -4.7990 h1         1 5E3       0.049033
     27 H2         -13.9930     8.6880    -4.8170 h1         1 5E3       0.049033
     28 H3         -14.7920     9.7190    -3.5940 h1         1 5E3       0.049033
     29 H4         -14.6120     7.5020    -2.8970 ha         1 5E3       0.142000
     30 H5         -10.6840     4.5690     0.8460 hc         1 5E3       0.063200
     31 H6         -11.4490     5.5860     2.0350 hc         1 5E3       0.063200
     32 H7         -11.3810     3.2300     2.8150 hc         1 5E3       0.044033
     33 H8         -13.0640     3.7250     2.6020 hc         1 5E3       0.044033
     34 H9         -12.2890     2.6960     1.3960 hc         1 5E3       0.044033
     35 H10        -10.4670     7.3790    -0.0760 ha         1 5E3       0.161000
     36 H11        -10.8260    10.0340    -2.6090 hn         1 5E3       0.507000
     37 H12         -8.0320     6.2800    -2.0250 ha         1 5E3       0.143000
     38 H13         -8.0800     4.4290    -3.6800 ha         1 5E3       0.124000
     39 H14         -9.0720     4.8310    -5.9200 ha         1 5E3       0.117000
     40 H15         -9.9860     7.0250    -6.5100 ha         1 5E3       0.120000
     41 H16        -11.0970    10.4140    -5.9750 h1         1 5E3       0.048700
     42 H17        -10.0900     9.2890    -6.9240 h1         1 5E3       0.048700
     43 H18        -11.5800     8.7060    -6.1280 h1         1 5E3       0.048700
@<TRIPOS>BOND
     1     1     2 1   
     2     1    26 1   
     3     1    27 1   
     4     1    28 1   
     5     2     3 1   
     6     3     4 ar  
     7     3    13 ar  
     8     4     5 ar  
     9     4    29 1   
    10     5     6 1   
    11     5    11 ar  
    12     6     7 1   
    13     7     8 2   
    14     8     9 1   
    15     8    11 1   
    16     9    10 1   
    17     9    30 1   
    18     9    31 1   
    19    10    32 1   
    20    10    33 1   
    21    10    34 1   
    22    11    12 ar  
    23    12    13 ar  
    24    12    35 1   
    25    13    14 1   
    26    14    15 1   
    27    14    36 1   
    28    15    16 2   
    29    15    17 2   
    30    15    18 1   
    31    18    19 ar  
    32    18    23 ar  
    33    19    20 ar  
    34    19    37 1   
    35    20    21 ar  
    36    20    38 1   
    37    21    22 ar  
    38    21    39 1   
    39    22    23 ar  
    40    22    40 1   
    41    23    24 1   
    42    24    25 1   
    43    25    41 1   
    44    25    42 1   
    45    25    43 1   
@<TRIPOS>SUBSTRUCTURE
     1 5E3         1 TEMP              0 ****  ****    0 ROOT
