@<TRIPOS>MOLECULE
5E3
   43    45     1     0     0
SMALL
No Charge or Current Charge


@<TRIPOS>ATOM
      1 CAX        -14.1060    10.1280    -3.9800 c3         1 5E3       0.151900
      2 OAM        -12.9180     9.8460    -3.2180 os         1 5E3      -0.358100
      3 CAB        -12.8490     8.7990    -2.3100 ca         1 5E3       0.157100
      4 CAC        -13.9640     7.9560    -2.0640 ca         1 5E3      -0.201000
      5 CAD        -13.8040     6.9090    -1.1530 ca         1 5E3       0.118100
      6 OAG        -14.7440     5.9820    -0.7940 os         1 5E3      -0.139100
      7 NAH        -14.0910     5.0780     0.1650 nc         1 5E3      -0.289700
      8 CAI        -12.8420     5.5350     0.3070 cd         1 5E3       0.406900
      9 CAJ        -11.8390     4.8380     1.1900 c3         1 5E3      -0.101700
     10 CAK        -10.8030     4.0200     0.3890 c3         1 5E3      -0.085100
     11 CAE        -12.6300     6.6930    -0.5130 ca         1 5E3      -0.268900
     12 CAF        -11.5030     7.5020    -0.7120 ca         1 5E3      -0.023000
     13 CAA        -11.6100     8.5730    -1.6320 ca         1 5E3       0.203000
     14 NAL        -10.5150     9.3980    -1.9200 nu         1 5E3      -0.848100
     15 SAN         -8.9150     8.9370    -2.0970 sy         1 5E3       1.182600
     16 OAO         -8.4500     8.6580    -0.7350 o          1 5E3      -0.540000
     17 OAP         -8.3600    10.0300    -2.8980 o          1 5E3      -0.540000
     18 CAQ         -8.9730     7.4330    -3.0650 ca         1 5E3      -0.348500
     19 CAV         -8.4510     6.2420    -2.5180 ca         1 5E3       0.026000
     20 CAU         -8.5180     5.0460    -3.2490 ca         1 5E3      -0.165000
     21 CAT         -9.1080     5.0290    -4.5210 ca         1 5E3      -0.016000
     22 CAS         -9.6350     6.2120    -5.0640 ca         1 5E3      -0.214000
     23 CAR         -9.5730     7.4230    -4.3380 ca         1 5E3       0.226100
     24 OAY        -10.1060     8.5940    -4.8390 os         1 5E3      -0.358100
     25 CAZ        -10.8360     8.6460    -6.0780 c3         1 5E3       0.159900
     26 H1         -13.9390    10.9890    -4.6380 h1         1 5E3       0.049033
     27 H2         -14.3800     9.2700    -4.6070 h1         1 5E3       0.049033
     28 H3         -14.9480    10.3650    -3.3180 h1         1 5E3       0.049033
     29 H4         -14.9200     8.0910    -2.5590 ha         1 5E3       0.142000
     30 H5         -11.3130     5.5820     1.8000 hc         1 5E3       0.063200
     31 H6         -12.3550     4.1710     1.8920 hc         1 5E3       0.063200
     32 H7         -10.0920     3.5330     1.0660 hc         1 5E3       0.044033
     33 H8         -11.3000     3.2430    -0.2050 hc         1 5E3       0.044033
     34 H9         -10.2390     4.6670    -0.2940 hc         1 5E3       0.044033
     35 H10        -10.5790     7.3040    -0.1780 ha         1 5E3       0.161000
     36 H11        -10.6620    10.0030    -2.7190 hn         1 5E3       0.507000
     37 H12         -7.9920     6.2330    -1.5300 ha         1 5E3       0.143000
     38 H13         -8.1140     4.1290    -2.8260 ha         1 5E3       0.124000
     39 H14         -9.1600     4.1000    -5.0850 ha         1 5E3       0.117000
     40 H15        -10.0890     6.1670    -6.0490 ha         1 5E3       0.120000
     41 H16        -11.1890     9.6670    -6.2670 h1         1 5E3       0.048700
     42 H17        -10.2000     8.3460    -6.9200 h1         1 5E3       0.048700
     43 H18        -11.7120     7.9860    -6.0420 h1         1 5E3       0.048700
@<TRIPOS>BOND
     1     1     2 1   
     2     1    26 1   
     3     1    27 1   
     4     1    28 1   
     5     2     3 1   
     6     3     4 ar  
     7     3    13 ar  
     8     4     5 ar  
     9     4    29 1   
    10     5     6 1   
    11     5    11 ar  
    12     6     7 1   
    13     7     8 2   
    14     8     9 1   
    15     8    11 1   
    16     9    10 1   
    17     9    30 1   
    18     9    31 1   
    19    10    32 1   
    20    10    33 1   
    21    10    34 1   
    22    11    12 ar  
    23    12    13 ar  
    24    12    35 1   
    25    13    14 1   
    26    14    15 1   
    27    14    36 1   
    28    15    16 2   
    29    15    17 2   
    30    15    18 1   
    31    18    19 ar  
    32    18    23 ar  
    33    19    20 ar  
    34    19    37 1   
    35    20    21 ar  
    36    20    38 1   
    37    21    22 ar  
    38    21    39 1   
    39    22    23 ar  
    40    22    40 1   
    41    23    24 1   
    42    24    25 1   
    43    25    41 1   
    44    25    42 1   
    45    25    43 1   
@<TRIPOS>SUBSTRUCTURE
     1 5E3         1 TEMP              0 ****  ****    0 ROOT
