@<TRIPOS>MOLECULE
5E4
   26    27     1     0     0
SMALL
bcc


@<TRIPOS>ATOM
      1 OAD         -2.6690    -2.1720    -1.4080 o          1 5E4      -0.813300
      2 CAP         -2.3640    -1.6110    -0.3390 c          1 5E4       0.923200
      3 OAQ         -1.6010    -2.0370     0.5450 o          1 5E4      -0.813300
      4 CAI         -3.0540    -0.2810    -0.0540 ca         1 5E4      -0.145600
      5 CAH         -4.4120    -0.1770    -0.3500 ca         1 5E4      -0.094000
      6 CAA         -5.1680     0.9240     0.0250 ca         1 5E4      -0.175000
      7 CAB         -4.5510     1.9750     0.6900 ca         1 5E4      -0.138000
      8 CAC         -3.1890     1.9240     0.9380 ca         1 5E4      -0.203000
      9 CAJ         -2.4310     0.8070     0.5750 ca         1 5E4       0.166600
     10 NAK         -1.0670     0.8310     0.8730 nu         1 5E4      -0.632000
     11 CAL         -0.0290     0.5150     0.0290 ca         1 5E4       0.240600
     12 CAM          1.2650     0.4770     0.5660 ca         1 5E4      -0.191000
     13 CAN          2.3430     0.2070    -0.2570 ca         1 5E4       0.030100
     14 BR           4.0770     0.1680     0.5030 br         1 5E4      -0.160100
     15 CAG          2.1960    -0.0420    -1.6130 ca         1 5E4      -0.176000
     16 CAF          0.9080     0.0020    -2.1330 ca         1 5E4      -0.087000
     17 CAE         -0.1910     0.2810    -1.3410 ca         1 5E4      -0.150000
     18 HAH         -4.8930    -1.0010    -0.8610 ha         1 5E4       0.143000
     19 HAA         -6.2270     0.9610    -0.1970 ha         1 5E4       0.107000
     20 HAB         -5.1190     2.8440     0.9960 ha         1 5E4       0.103000
     21 HAC         -2.6970     2.7640     1.4140 ha         1 5E4       0.104000
     22 HAK         -0.8130     1.3680     1.6860 hn         1 5E4       0.416800
     23 HAM          1.4050     0.6580     1.6250 ha         1 5E4       0.133000
     24 HAG          3.0440    -0.2560    -2.2480 ha         1 5E4       0.129000
     25 HAF          0.7620    -0.1740    -3.1910 ha         1 5E4       0.123000
     26 HAE         -1.1710     0.3220    -1.7950 ha         1 5E4       0.161000
@<TRIPOS>BOND
     1     1     2 1   
     2     2     3 1   
     3     2     4 1   
     4     4     5 ar  
     5     4     9 ar  
     6     5     6 ar  
     7     5    18 1   
     8     6     7 ar  
     9     6    19 1   
    10     7     8 ar  
    11     7    20 1   
    12     8     9 ar  
    13     8    21 1   
    14     9    10 1   
    15    10    11 1   
    16    10    22 1   
    17    11    12 ar  
    18    11    17 ar  
    19    12    13 ar  
    20    12    23 1   
    21    13    14 1   
    22    13    15 ar  
    23    15    16 ar  
    24    15    24 1   
    25    16    17 ar  
    26    16    25 1   
    27    17    26 1   
@<TRIPOS>SUBSTRUCTURE
     1 5E4         1 TEMP              0 ****  ****    0 ROOT
