@<TRIPOS>MOLECULE
5E4
   26    27     1     0     0
SMALL
No Charge or Current Charge


@<TRIPOS>ATOM
      1 OAD         -2.4580    -1.9710    -1.5010 o          1 5E4      -0.708000
      2 CAP         -2.3690    -1.5520    -0.3550 c          1 5E4       0.712600
      3 OAQ         -1.8550    -2.1880     0.5550 o          1 5E4      -0.708000
      4 CAI         -3.1110    -0.2930    -0.0170 ca         1 5E4      -0.145600
      5 CAH         -4.5110    -0.2660    -0.2090 ca         1 5E4      -0.076000
      6 CAA         -5.2610     0.8630     0.1530 ca         1 5E4      -0.157000
      7 CAB         -4.6230     1.9750     0.7190 ca         1 5E4      -0.120000
      8 CAC         -3.2310     1.9590     0.9060 ca         1 5E4      -0.185000
      9 CAJ         -2.4640     0.8430     0.5250 ca         1 5E4       0.305000
     10 NAK         -1.0830     0.9300     0.7250 nu         1 5E4      -0.964000
     11 CAL          0.0190     0.5720    -0.0550 ca         1 5E4       0.379000
     12 CAM          1.2790     0.4680     0.5540 ca         1 5E4      -0.173000
     13 CAN          2.4070     0.1320    -0.2110 ca         1 5E4       0.030100
     14 Br           4.1170    -0.0210     0.6290 br         1 5E4      -0.160100
     15 CAG          2.2850    -0.0890    -1.5920 ca         1 5E4      -0.158000
     16 CAF          1.0300     0.0320    -2.2110 ca         1 5E4      -0.069000
     17 CAE         -0.0990     0.3670    -1.4420 ca         1 5E4      -0.132000
     18 HAH         -5.0160    -1.1350    -0.6270 ha         1 5E4       0.125000
     19 HAA         -6.3390     0.8710     0.0060 ha         1 5E4       0.089000
     20 HAB         -5.2020     2.8490     1.0080 ha         1 5E4       0.085000
     21 HAC         -2.7440     2.8310     1.3340 ha         1 5E4       0.086000
     22 HAK         -0.8270     1.4600     1.5570 hn         1 5E4       0.472000
     23 HAM          1.3830     0.6380     1.6220 ha         1 5E4       0.115000
     24 HAG          3.1600    -0.3470    -2.1840 ha         1 5E4       0.111000
     25 HAF          0.9310    -0.1280    -3.2820 ha         1 5E4       0.105000
     26 HAE         -1.0630     0.4780    -1.9270 ha         1 5E4       0.143000
@<TRIPOS>BOND
     1     1     2 1   
     2     2     3 1   
     3     2     4 1   
     4     4     5 ar  
     5     4     9 ar  
     6     5     6 ar  
     7     5    18 1   
     8     6     7 ar  
     9     6    19 1   
    10     7     8 ar  
    11     7    20 1   
    12     8     9 ar  
    13     8    21 1   
    14     9    10 1   
    15    10    11 1   
    16    10    22 1   
    17    11    12 ar  
    18    11    17 ar  
    19    12    13 ar  
    20    12    23 1   
    21    13    14 1   
    22    13    15 ar  
    23    15    16 ar  
    24    15    24 1   
    25    16    17 ar  
    26    16    25 1   
    27    17    26 1   
@<TRIPOS>SUBSTRUCTURE
     1 5E4         1 TEMP              0 ****  ****    0 ROOT
