@<TRIPOS>MOLECULE
5E5
   26    28     1     0     0
SMALL
No Charge or Current Charge


@<TRIPOS>ATOM
      1 C7          -0.4900    -0.6650     0.0380 ca         1 5E5      -0.079000
      2 C2          -3.0400    -1.0380     0.0570 cc         1 5E5      -0.089300
      3 C10         -1.1990     1.9990    -0.2440 ca         1 5E5       0.397900
      4 N3          -4.0750    -0.1130    -0.0490 na         1 5E5       0.022500
      5 C6          -1.8380    -0.2910    -0.0140 ca         1 5E5      -0.133000
      6 C1          -3.2120    -2.5250     0.2140 c3         1 5E5      -0.032900
      7 N4          -3.5970     1.2010    -0.1840 nc         1 5E5      -0.258400
      8 C5          -2.2080     1.0190    -0.1540 ca         1 5E5      -0.127000
      9 C8           0.4870     0.3680    -0.0650 cp         1 5E5       0.365500
     10 N9           0.1210     1.6740    -0.1970 nb         1 5E5      -0.669000
     11 C11          1.9620     0.0920    -0.0220 cp         1 5E5      -0.181500
     12 C12          2.9120     1.1090     0.2650 ca         1 5E5      -0.042000
     13 C13          4.2770     0.7860     0.2890 ca         1 5E5      -0.170000
     14 C14          4.6740    -0.5330     0.0260 ca         1 5E5       0.335900
     15 N15          3.7930    -1.5180    -0.2570 nb         1 5E5      -0.671000
     16 C16          2.4760    -1.2050    -0.2780 ca         1 5E5       0.340900
     17 H1          -0.2150    -1.7060     0.1650 ha         1 5E5       0.125000
     18 H2          -1.4460     3.0550    -0.3520 h4         1 5E5       0.033100
     19 H3          -5.0710    -0.3100    -0.0350 hn         1 5E5       0.371000
     20 H4          -2.7700    -2.8690     1.1570 hc         1 5E5       0.056367
     21 H5          -4.2710    -2.8100     0.2140 hc         1 5E5       0.056367
     22 H6          -2.7190    -3.0610    -0.6050 hc         1 5E5       0.056367
     23 H7           2.5980     2.1300     0.4730 ha         1 5E5       0.137000
     24 H8           5.0230     1.5440     0.5100 ha         1 5E5       0.123000
     25 H9           5.7270    -0.8100     0.0380 h4         1 5E5       0.017100
     26 H10          1.8130    -2.0310    -0.5270 h4         1 5E5       0.014100
@<TRIPOS>BOND
     1     1     5 ar  
     2     1     9 ar  
     3     1    17 1   
     4     2     4 1   
     5     2     5 2   
     6     2     6 1   
     7     3     8 ar  
     8     3    10 ar  
     9     3    18 1   
    10     4     7 1   
    11     4    19 1   
    12     5     8 ar  
    13     6    20 1   
    14     6    21 1   
    15     6    22 1   
    16     7     8 2   
    17     9    10 ar  
    18     9    11 1   
    19    11    12 ar  
    20    11    16 ar  
    21    12    13 ar  
    22    12    23 1   
    23    13    14 ar  
    24    13    24 1   
    25    14    15 ar  
    26    14    25 1   
    27    15    16 ar  
    28    16    26 1   
@<TRIPOS>SUBSTRUCTURE
     1 5E5         1 TEMP              0 ****  ****    0 ROOT
