@<TRIPOS>MOLECULE
5E5
   26    28     1     0     0
SMALL
bcc


@<TRIPOS>ATOM
      1 C7          -0.4190    -0.7090     0.0460 ca         1 5E5      -0.162300
      2 C2          -2.9930    -1.0550     0.0870 cc         1 5E5      -0.089300
      3 C10         -1.1330     1.9610    -0.2620 ca         1 5E5       0.463200
      4 N3          -3.9240    -0.1000    -0.0300 na         1 5E5       0.072800
      5 C6          -1.7820    -0.3660     0.0040 ca         1 5E5      -0.133000
      6 C1          -3.2990    -2.4930     0.2870 c3         1 5E5      -0.032900
      7 N4          -3.4790     1.1390    -0.1770 nc         1 5E5      -0.258400
      8 C5          -2.1550     0.9910    -0.1570 ca         1 5E5      -0.192300
      9 C8           0.4900     0.3130    -0.0860 cp         1 5E5       0.430800
     10 N9           0.1210     1.6210    -0.2260 nb         1 5E5      -0.669000
     11 C11          1.9450     0.0700    -0.0630 cp         1 5E5      -0.246800
     12 C12          2.8410     1.0720     0.3070 ca         1 5E5      -0.060000
     13 C13          4.1970     0.7970     0.3290 ca         1 5E5      -0.253300
     14 C14          4.6250    -0.4730    -0.0270 ca         1 5E5       0.401200
     15 N15          3.7900    -1.4350    -0.4020 nb         1 5E5      -0.671000
     16 C16          2.4930    -1.1630    -0.4210 ca         1 5E5       0.406200
     17 H1          -0.1040    -1.7330     0.1970 ha         1 5E5       0.143000
     18 H2          -1.3720     3.0140    -0.3740 h4         1 5E5       0.033100
     19 H3          -4.9230    -0.2560    -0.0160 hn         1 5E5       0.320700
     20 H4          -3.4280    -2.7260     1.3450 hc         1 5E5       0.056367
     21 H5          -4.2110    -2.7860    -0.2330 hc         1 5E5       0.056367
     22 H6          -2.4840    -3.1080    -0.0900 hc         1 5E5       0.056367
     23 H7           2.4750     2.0520     0.5830 ha         1 5E5       0.155000
     24 H8           4.9140     1.5530     0.6190 ha         1 5E5       0.141000
     25 H9           5.6800    -0.7200    -0.0170 h4         1 5E5       0.017100
     26 H10          1.8480    -1.9680    -0.7590 h4         1 5E5       0.014100
@<TRIPOS>BOND
     1     1     5 ar  
     2     1     9 ar  
     3     1    17 1   
     4     2     4 1   
     5     2     5 2   
     6     2     6 1   
     7     3     8 ar  
     8     3    10 ar  
     9     3    18 1   
    10     4     7 1   
    11     4    19 1   
    12     5     8 ar  
    13     6    20 1   
    14     6    21 1   
    15     6    22 1   
    16     7     8 2   
    17     9    10 ar  
    18     9    11 1   
    19    11    12 ar  
    20    11    16 ar  
    21    12    13 ar  
    22    12    23 1   
    23    13    14 ar  
    24    13    24 1   
    25    14    15 ar  
    26    14    25 1   
    27    15    16 ar  
    28    16    26 1   
@<TRIPOS>SUBSTRUCTURE
     1 5E5         1 TEMP              0 ****  ****    0 ROOT
