@<TRIPOS>MOLECULE
5E6
   52    56     1     0     0
SMALL
bcc


@<TRIPOS>ATOM
      1 C9          -4.7350     0.3340    -0.6190 c6         1 5E6      -0.104400
      2 C2          -0.8580     4.0210     0.5530 ca         1 5E6      -0.279300
      3 C10         -4.2840    -0.6310    -1.7080 c6         1 5E6      -0.074400
      4 C6          -2.8740     2.7450     0.8490 ca         1 5E6      -0.313300
      5 C1          -2.2250     3.9600     0.7930 ca         1 5E6      -0.055000
      6 C3          -0.1890     2.8150     0.3820 ca         1 5E6       0.466000
      7 N4          -0.7970     1.6340     0.4360 nb         1 5E6      -0.771000
      8 C5          -2.1110     1.5770     0.6620 ca         1 5E6       0.695200
      9 N7          -2.6440     0.3330     0.7230 nu         1 5E6      -0.885900
     10 C8          -4.0620     0.0320     0.7260 c6         1 5E6       0.250500
     11 C11         -4.5430    -2.0760    -1.2990 c6         1 5E6      -0.078400
     12 C12         -3.8400    -2.4110     0.0120 c6         1 5E6       0.163500
     13 C13         -4.2750    -1.4330     1.1030 c6         1 5E6      -0.087400
     14 N14         -4.1750    -3.7660     0.4270 n8         1 5E6      -0.888800
     15 C15          1.2500     2.7620     0.1220 cc         1 5E6       0.291900
     16 C16          2.0810     1.6110    -0.0370 ca         1 5E6      -0.166900
     17 C17          1.9320     0.2230    -0.0060 ca         1 5E6      -0.130300
     18 C18          3.0620    -0.5440    -0.2220 cp         1 5E6       0.414800
     19 N19          4.2860    -0.0090    -0.4330 nb         1 5E6      -0.648000
     20 C20          4.4520     1.2890    -0.4590 ca         1 5E6       0.410200
     21 C21          3.3570     2.1390    -0.2690 ca         1 5E6      -0.181500
     22 N22          3.2230     3.4840    -0.2400 na         1 5E6       0.012900
     23 N24          1.9740     3.8530    -0.0100 nd         1 5E6      -0.500100
     24 C25          3.0010    -2.0190    -0.2150 cp         1 5E6      -0.244800
     25 C26          4.1130    -2.7880     0.1220 ca         1 5E6      -0.061000
     26 C27          4.0050    -4.1680     0.1290 ca         1 5E6      -0.252300
     27 C28          2.7880    -4.7420    -0.2080 ca         1 5E6       0.401200
     28 N29          1.7230    -4.0260    -0.5500 nb         1 5E6      -0.674000
     29 C30          1.8350    -2.7060    -0.5560 ca         1 5E6       0.407200
     30 H1          -4.5400     1.3660    -0.9190 hc         1 5E6       0.049700
     31 H2          -5.8180     0.2520    -0.4840 hc         1 5E6       0.049700
     32 H4          -4.8040    -0.4030    -2.6410 hc         1 5E6       0.044700
     33 H5          -3.2180    -0.4870    -1.9110 hc         1 5E6       0.044700
     34 H6          -3.9370     2.7000     1.0380 ha         1 5E6       0.141000
     35 H7          -2.7890     4.8730     0.9380 ha         1 5E6       0.133000
     36 H8          -1.9990    -0.4110     0.5120 hn         1 5E6       0.437800
     37 H9          -4.5340     0.6440     1.5020 h1         1 5E6       0.057700
     38 H10         -5.6190    -2.2360    -1.1680 hc         1 5E6       0.049700
     39 H11         -4.2110    -2.7620    -2.0840 hc         1 5E6       0.049700
     40 H12         -2.7560    -2.2980    -0.1610 h1         1 5E6       0.012700
     41 H13         -3.7560    -1.6550     2.0410 hc         1 5E6       0.060200
     42 H14         -5.3420    -1.5860     1.2870 hc         1 5E6       0.060200
     43 H15         -3.8470    -4.4200    -0.2750 hn         1 5E6       0.341300
     44 H16         -3.6620    -3.9980     1.2690 hn         1 5E6       0.341300
     45 H18          0.9700    -0.2200     0.2000 ha         1 5E6       0.166000
     46 H19          5.4510     1.6730    -0.6300 h4         1 5E6       0.025100
     47 H23          3.9350     4.1840    -0.3790 hn         1 5E6       0.333700
     48 H20          5.0460    -2.3090     0.3850 ha         1 5E6       0.154000
     49 H21          4.8480    -4.7910     0.3940 ha         1 5E6       0.142000
     50 H22          2.6700    -5.8200    -0.2060 h4         1 5E6       0.017100
     51 H24          0.9520    -2.1590    -0.8700 h4         1 5E6       0.017100
     52 H3          -0.3350     4.9650     0.4980 ha         1 5E6       0.156000
@<TRIPOS>BOND
     1     1     3 1   
     2     1    10 1   
     3     1    30 1   
     4     1    31 1   
     5     2     5 ar  
     6     2     6 ar  
     7     2    52 1   
     8     3    11 1   
     9     3    32 1   
    10     3    33 1   
    11     4     5 ar  
    12     4     8 ar  
    13     4    34 1   
    14     5    35 1   
    15     6     7 ar  
    16     6    15 1   
    17     7     8 ar  
    18     8     9 1   
    19     9    10 1   
    20     9    36 1   
    21    10    13 1   
    22    10    37 1   
    23    11    12 1   
    24    11    38 1   
    25    11    39 1   
    26    12    13 1   
    27    12    14 1   
    28    12    40 1   
    29    13    41 1   
    30    13    42 1   
    31    14    43 1   
    32    14    44 1   
    33    15    16 1   
    34    15    23 2   
    35    16    17 ar  
    36    16    21 ar  
    37    17    18 ar  
    38    17    45 1   
    39    18    19 ar  
    40    18    24 1   
    41    19    20 ar  
    42    20    21 ar  
    43    20    46 1   
    44    21    22 1   
    45    22    23 1   
    46    22    47 1   
    47    24    25 ar  
    48    24    29 ar  
    49    25    26 ar  
    50    25    48 1   
    51    26    27 ar  
    52    26    49 1   
    53    27    28 ar  
    54    27    50 1   
    55    28    29 ar  
    56    29    51 1   
@<TRIPOS>SUBSTRUCTURE
     1 5E6         1 TEMP              0 ****  ****    0 ROOT
