@<TRIPOS>MOLECULE
5E6
   52    56     1     0     0
SMALL
No Charge or Current Charge


@<TRIPOS>ATOM
      1 C9          -4.2160     0.1850    -0.9290 c6         1 5E6      -0.104400
      2 C2          -1.0120     4.1350     0.6430 ca         1 5E6      -0.196000
      3 C10         -3.3320    -0.8620    -1.6590 c6         1 5E6      -0.074400
      4 C6          -3.0420     2.9320     1.0840 ca         1 5E6      -0.230000
      5 C1          -2.3860     4.1590     0.9310 ca         1 5E6      -0.037000
      6 C3          -0.3300     2.8990     0.5160 ca         1 5E6       0.400700
      7 N4          -0.9930     1.7210     0.6780 nb         1 5E6      -0.771000
      8 C5          -2.2920     1.7620     0.9410 ca         1 5E6       0.629900
      9 N7          -2.7830     0.5030     1.0810 nu         1 5E6      -0.941100
     10 C8          -4.1100     0.0770     0.6180 c6         1 5E6       0.250500
     11 C11         -3.6570    -2.2980    -1.1780 c6         1 5E6      -0.078400
     12 C12         -3.5140    -2.4200     0.3600 c6         1 5E6       0.163500
     13 C13         -4.3960    -1.3730     1.0920 c6         1 5E6      -0.087400
     14 N14         -3.8590    -3.7830     0.8010 n8         1 5E6      -0.999200
     15 C15          1.1290     2.8860     0.1990 cc         1 5E6       0.291900
     16 C16          1.9410     1.6980    -0.0330 ca         1 5E6      -0.166900
     17 C17          1.6910     0.3150    -0.0550 ca         1 5E6      -0.047000
     18 C18          2.7830    -0.5580    -0.3480 cp         1 5E6       0.349500
     19 N19          4.0380    -0.0760    -0.5840 nb         1 5E6      -0.648000
     20 C20          4.2510     1.2660    -0.5620 ca         1 5E6       0.344900
     21 C21          3.1960     2.1490    -0.2880 ca         1 5E6      -0.116200
     22 N22          3.1630     3.5250    -0.2200 na         1 5E6      -0.037400
     23 N24          1.8810     4.0030     0.0790 nd         1 5E6      -0.500100
     24 C25          2.6250    -2.0500    -0.4070 cp         1 5E6      -0.179500
     25 C26          3.7310    -2.9310    -0.2720 ca         1 5E6      -0.043000
     26 C27          3.5170    -4.3160    -0.3380 ca         1 5E6      -0.169000
     27 C28          2.2170    -4.8000    -0.5400 ca         1 5E6       0.335900
     28 N29          1.1480    -3.9850    -0.6790 nb         1 5E6      -0.674000
     29 C30          1.3550    -2.6490    -0.6140 ca         1 5E6       0.341900
     30 H1          -3.9530     1.1980    -1.2640 hc         1 5E6       0.049700
     31 H2          -5.2640     0.0350    -1.2240 hc         1 5E6       0.049700
     32 H4          -3.4890    -0.7890    -2.7440 hc         1 5E6       0.044700
     33 H5          -2.2690    -0.6430    -1.4860 hc         1 5E6       0.044700
     34 H6          -4.1010     2.8930     1.3160 ha         1 5E6       0.123000
     35 H7          -2.9230     5.1000     1.0320 ha         1 5E6       0.115000
     36 H8          -2.0230    -0.1540     0.9550 hn         1 5E6       0.493000
     37 H9          -4.8770     0.7290     1.0640 h1         1 5E6       0.057700
     38 H10         -4.6800    -2.5630    -1.4820 hc         1 5E6       0.049700
     39 H11         -2.9870    -3.0110    -1.6770 hc         1 5E6       0.049700
     40 H12         -2.4600    -2.2560     0.6310 h1         1 5E6       0.012700
     41 H13         -4.2490    -1.4430     2.1790 hc         1 5E6       0.060200
     42 H14         -5.4550    -1.5990     0.9110 hc         1 5E6       0.060200
     43 H15         -3.2060    -4.4440     0.3630 hn         1 5E6       0.396500
     44 H16         -3.6450    -3.8690     1.8020 hn         1 5E6       0.396500
     45 H18          0.7050    -0.0830     0.1510 ha         1 5E6       0.148000
     46 H19          5.2620     1.6200    -0.7640 h4         1 5E6       0.025100
     47 H23          3.9490     4.1590    -0.3660 hn         1 5E6       0.384000
     48 H20          4.7380    -2.5490    -0.1110 ha         1 5E6       0.136000
     49 H21          4.3450    -5.0110    -0.2330 ha         1 5E6       0.124000
     50 H22          2.0240    -5.8700    -0.5940 h4         1 5E6       0.017100
     51 H24          0.4640    -2.0400    -0.7500 h4         1 5E6       0.017100
     52 H3          -0.4770     5.0720     0.5150 ha         1 5E6       0.138000
@<TRIPOS>BOND
     1     1     3 1   
     2     1    10 1   
     3     1    30 1   
     4     1    31 1   
     5     2     5 ar  
     6     2     6 ar  
     7     2    52 1   
     8     3    11 1   
     9     3    32 1   
    10     3    33 1   
    11     4     5 ar  
    12     4     8 ar  
    13     4    34 1   
    14     5    35 1   
    15     6     7 ar  
    16     6    15 1   
    17     7     8 ar  
    18     8     9 1   
    19     9    10 1   
    20     9    36 1   
    21    10    13 1   
    22    10    37 1   
    23    11    12 1   
    24    11    38 1   
    25    11    39 1   
    26    12    13 1   
    27    12    14 1   
    28    12    40 1   
    29    13    41 1   
    30    13    42 1   
    31    14    43 1   
    32    14    44 1   
    33    15    16 1   
    34    15    23 2   
    35    16    17 ar  
    36    16    21 ar  
    37    17    18 ar  
    38    17    45 1   
    39    18    19 ar  
    40    18    24 1   
    41    19    20 ar  
    42    20    21 ar  
    43    20    46 1   
    44    21    22 1   
    45    22    23 1   
    46    22    47 1   
    47    24    25 ar  
    48    24    29 ar  
    49    25    26 ar  
    50    25    48 1   
    51    26    27 ar  
    52    26    49 1   
    53    27    28 ar  
    54    27    50 1   
    55    28    29 ar  
    56    29    51 1   
@<TRIPOS>SUBSTRUCTURE
     1 5E6         1 TEMP              0 ****  ****    0 ROOT
