@<TRIPOS>MOLECULE
5E7
   98   100     1     0     0
SMALL
No Charge or Current Charge


@<TRIPOS>ATOM
      1 C01         -4.2780     2.8330    -3.9850 c3         1 5E7       0.185100
      2 N02         -4.7190     2.5250    -2.6100 nh         1 5E7      -0.754300
      3 S03         -5.7090     3.6960    -1.8030 s6         1 5E7       1.183100
      4 O04         -4.7900     4.6310    -1.1480 o          1 5E7      -0.538000
      5 C05         -6.5860     4.5710    -3.0910 c3         1 5E7      -0.341100
      6 O06         -6.6850     2.9460    -1.0070 o          1 5E7      -0.538000
      7 C07         -3.9760     1.6310    -1.8130 ca         1 5E7       0.227000
      8 C08         -2.5850     1.7830    -1.6810 ca         1 5E7      -0.057000
      9 C09         -1.8220     0.8930    -0.8930 ca         1 5E7      -0.146600
     10 C10         -0.3250     1.1080    -0.7800 c          1 5E7       0.615700
     11 N11          0.3790     0.1810    -0.0450 ns         1 5E7      -0.481900
     12 C12          1.8230     0.2370     0.2220 c3         1 5E7       0.110700
     13 C13          2.1350    -0.4550     1.5790 c3         1 5E7      -0.051100
     14 C14          1.2190     0.0060     2.7120 ca         1 5E7      -0.093300
     15 C15          1.2330     1.3520     3.1310 ca         1 5E7      -0.104500
     16 C16          0.3830     1.7830     4.1630 ca         1 5E7      -0.110500
     17 C17         -0.4840     0.8710     4.7870 ca         1 5E7      -0.108000
     18 C18         -0.4990    -0.4730     4.3800 ca         1 5E7      -0.110500
     19 C19          0.3490    -0.9050     3.3440 ca         1 5E7      -0.104500
     20 C20          2.6440    -0.2980    -0.9970 c3         1 5E7       0.165300
     21 O21          2.4660    -1.7060    -1.1950 oh         1 5E7      -0.672000
     22 C22          4.1750    -0.0630    -0.9080 c3         1 5E7       0.118800
     23 N23          4.8840    -0.9590    -1.8670 n7         1 5E7      -0.878400
     24 C24          6.3770    -1.0410    -1.6930 c3         1 5E7       0.068500
     25 C25          6.9850    -2.1970    -2.5460 c3         1 5E7       0.174300
     26 O26          8.3950    -2.3040    -2.2970 oh         1 5E7      -0.646000
     27 C27          6.3470    -3.5750    -2.2620 c3         1 5E7      -0.120100
     28 C28          7.1000     0.3090    -2.0210 c          1 5E7       0.568100
     29 N29          7.8190     0.8620    -0.9770 ns         1 5E7      -0.494900
     30 C30          8.5700     2.1210    -1.0430 c3         1 5E7       0.104000
     31 C31          7.8190     3.3140    -0.3980 c3         1 5E7      -0.079700
     32 C32          8.7330     4.5570    -0.3080 c3         1 5E7      -0.088100
     33 C33          6.4950     3.6540    -1.1220 c3         1 5E7      -0.088100
     34 O34          7.0100     0.8600    -3.1120 o          1 5E7      -0.606100
     35 O35          0.2370     2.0600    -1.3050 o          1 5E7      -0.590100
     36 C36         -2.4870    -0.1670    -0.2280 ca         1 5E7      -0.062000
     37 C37         -3.8880    -0.3410    -0.3520 ca         1 5E7      -0.149600
     38 C38         -4.6300    -1.4700     0.3330 c          1 5E7       0.616700
     39 N39         -3.8850    -2.2920     1.1500 ns         1 5E7      -0.497900
     40 C40         -4.3990    -3.4440     1.8850 c3         1 5E7       0.160000
     41 C41         -5.2070    -3.0080     3.1260 c3         1 5E7      -0.108100
     42 C42         -3.2410    -4.3720     2.2440 ca         1 5E7      -0.100300
     43 C43         -3.1520    -5.6520     1.6600 ca         1 5E7      -0.098500
     44 C44         -2.0780    -6.5040     1.9730 ca         1 5E7      -0.110000
     45 C45         -1.0830    -6.0830     2.8700 ca         1 5E7      -0.104000
     46 C46         -1.1610    -4.8080     3.4530 ca         1 5E7      -0.110000
     47 C47         -2.2340    -3.9560     3.1410 ca         1 5E7      -0.098500
     48 O48         -5.8270    -1.6570     0.1640 o          1 5E7      -0.600100
     49 C49         -4.6140     0.5690    -1.1510 ca         1 5E7      -0.010000
     50 H1          -3.7900     3.8160    -4.0300 h1         1 5E7       0.054033
     51 H2          -3.5620     2.0790    -4.3380 h1         1 5E7       0.054033
     52 H3          -5.1290     2.8220    -4.6780 h1         1 5E7       0.054033
     53 H4          -5.8510     5.1010    -3.7040 h1         1 5E7       0.105367
     54 H5          -7.1430     3.8300    -3.6730 h1         1 5E7       0.105367
     55 H6          -7.2640     5.2750    -2.5990 h1         1 5E7       0.105367
     56 H7          -2.0980     2.6090    -2.1920 ha         1 5E7       0.145000
     57 H8          -0.1410    -0.5900     0.3460 hn         1 5E7       0.317500
     58 H9           2.0870     1.2970     0.3380 h1         1 5E7       0.087700
     59 H10          2.0580    -1.5420     1.4560 hc         1 5E7       0.055700
     60 H11          3.1750    -0.2560     1.8610 hc         1 5E7       0.055700
     61 H12          1.9030     2.0650     2.6560 ha         1 5E7       0.107000
     62 H13          0.3980     2.8240     4.4800 ha         1 5E7       0.117500
     63 H14         -1.1420     1.2050     5.5880 ha         1 5E7       0.128000
     64 H15         -1.1650    -1.1800     4.8690 ha         1 5E7       0.117500
     65 H16          0.3290    -1.9480     3.0370 ha         1 5E7       0.107000
     66 H17          2.2950     0.2330    -1.8940 h1         1 5E7       0.047700
     67 H18          3.3730    -1.9620    -1.5060 ho         1 5E7       0.467000
     68 H19          4.3940     0.9940    -1.1120 h1         1 5E7       0.050200
     69 H20          4.5150    -0.2780     0.1130 h1         1 5E7       0.050200
     70 H21          4.6960    -0.6200    -2.8240 hn         1 5E7       0.438000
     71 H23          6.5940    -1.2750    -0.6420 h1         1 5E7       0.057700
     72 H24          6.8160    -1.9580    -3.6060 h1         1 5E7       0.091700
     73 H25          8.5050    -2.8670    -1.5000 ho         1 5E7       0.434000
     74 H26          5.2850    -3.5770    -2.5340 hc         1 5E7       0.046033
     75 H27          6.8400    -4.3590    -2.8510 hc         1 5E7       0.046033
     76 H28          6.4280    -3.8360    -1.2000 hc         1 5E7       0.046033
     77 H29          9.5220     1.9690    -0.5170 h1         1 5E7       0.055200
     78 H30          7.5660     3.0270     0.6310 hc         1 5E7       0.046700
     79 H31          9.0240     4.9000    -1.3090 hc         1 5E7       0.036700
     80 H32          8.2190     5.3810     0.2010 hc         1 5E7       0.036700
     81 H33          9.6450     4.3290     0.2560 hc         1 5E7       0.036700
     82 H34          5.8010     2.8080    -1.0910 hc         1 5E7       0.036700
     83 H35          5.9990     4.5080    -0.6430 hc         1 5E7       0.036700
     84 H36          6.6790     3.9100    -2.1730 hc         1 5E7       0.036700
     85 H37         -1.9140    -0.8560     0.3840 ha         1 5E7       0.127000
     86 H38         -2.9020    -2.0850     1.2360 hn         1 5E7       0.315500
     87 H39         -5.0830    -3.9890     1.2190 h1         1 5E7       0.081700
     88 H40         -4.5990    -2.3970     3.8020 hc         1 5E7       0.045700
     89 H41         -6.0850    -2.4200     2.8320 hc         1 5E7       0.045700
     90 H42         -5.5600    -3.8870     3.6780 hc         1 5E7       0.045700
     91 H43         -3.9130    -5.9890     0.9600 ha         1 5E7       0.113500
     92 H44         -2.0170    -7.4910     1.5180 ha         1 5E7       0.114000
     93 H45         -0.2520    -6.7430     3.1110 ha         1 5E7       0.113000
     94 H46         -0.3890    -4.4790     4.1460 ha         1 5E7       0.114000
     95 H47         -2.2800    -2.9700     3.5960 ha         1 5E7       0.113500
     96 H48         -5.6880     0.4510    -1.2720 ha         1 5E7       0.145000
     97 H22          7.8300     0.3430    -0.1070 hn         1 5E7       0.309500
     98 H49          8.8080     2.3560    -2.0880 h1         1 5E7       0.055200
@<TRIPOS>BOND
     1     1     2 1   
     2     1    50 1   
     3     1    51 1   
     4     1    52 1   
     5     2     3 1   
     6     2     7 1   
     7     3     4 2   
     8     3     5 1   
     9     3     6 2   
    10     5    53 1   
    11     5    54 1   
    12     5    55 1   
    13     7     8 ar  
    14     7    49 ar  
    15     8     9 ar  
    16     8    56 1   
    17     9    10 1   
    18     9    36 ar  
    19    10    11 1   
    20    10    35 2   
    21    11    12 1   
    22    11    57 1   
    23    12    13 1   
    24    12    20 1   
    25    12    58 1   
    26    13    14 1   
    27    13    59 1   
    28    13    60 1   
    29    14    15 ar  
    30    14    19 ar  
    31    15    16 ar  
    32    15    61 1   
    33    16    17 ar  
    34    16    62 1   
    35    17    18 ar  
    36    17    63 1   
    37    18    19 ar  
    38    18    64 1   
    39    19    65 1   
    40    20    21 1   
    41    20    22 1   
    42    20    66 1   
    43    21    67 1   
    44    22    23 1   
    45    22    68 1   
    46    22    69 1   
    47    23    24 1   
    48    23    70 1   
    49    24    25 1   
    50    24    28 1   
    51    24    71 1   
    52    25    26 1   
    53    25    27 1   
    54    25    72 1   
    55    26    73 1   
    56    27    74 1   
    57    27    75 1   
    58    27    76 1   
    59    28    29 1   
    60    28    34 2   
    61    29    30 1   
    62    29    97 1   
    63    30    31 1   
    64    30    77 1   
    65    30    98 1   
    66    31    32 1   
    67    31    33 1   
    68    31    78 1   
    69    32    79 1   
    70    32    80 1   
    71    32    81 1   
    72    33    82 1   
    73    33    83 1   
    74    33    84 1   
    75    36    37 ar  
    76    36    85 1   
    77    37    38 1   
    78    37    49 ar  
    79    38    39 1   
    80    38    48 2   
    81    39    40 1   
    82    39    86 1   
    83    40    41 1   
    84    40    42 1   
    85    40    87 1   
    86    41    88 1   
    87    41    89 1   
    88    41    90 1   
    89    42    43 ar  
    90    42    47 ar  
    91    43    44 ar  
    92    43    91 1   
    93    44    45 ar  
    94    44    92 1   
    95    45    46 ar  
    96    45    93 1   
    97    46    47 ar  
    98    46    94 1   
    99    47    95 1   
   100    49    96 1   
@<TRIPOS>SUBSTRUCTURE
     1 5E7         1 TEMP              0 ****  ****    0 ROOT
