@<TRIPOS>MOLECULE
5E7
   98   100     1     0     0
SMALL
abcg2


@<TRIPOS>ATOM
      1 C01         -5.2000     3.6320    -1.8230 c3         1 5E7       0.185100
      2 N02         -5.2820     2.6320    -0.7590 nh         1 5E7      -0.754300
      3 S03         -5.6250     3.2360     0.7700 s6         1 5E7       1.183100
      4 O04         -5.0010     4.5400     0.9470 o          1 5E7      -0.538000
      5 C05         -7.3820     3.4610     0.6950 c3         1 5E7      -0.341100
      6 O06         -5.3180     2.1830     1.7250 o          1 5E7      -0.538000
      7 C07         -4.3560     1.5540    -0.8040 ca         1 5E7       0.227000
      8 C08         -3.0180     1.7760    -1.0880 ca         1 5E7      -0.057000
      9 C09         -2.1240     0.7130    -1.1080 ca         1 5E7      -0.146600
     10 C10         -0.6850     1.0420    -1.3490 c          1 5E7       0.615700
     11 N11          0.1960     0.2970    -0.6520 ns         1 5E7      -0.481900
     12 C12          1.5730     0.7030    -0.4440 c3         1 5E7       0.110700
     13 C13          1.7100     1.4030     0.9240 c3         1 5E7      -0.051100
     14 C14          0.6880     2.4950     1.0740 ca         1 5E7      -0.093300
     15 C15          0.9170     3.7660     0.5540 ca         1 5E7      -0.104500
     16 C16         -0.0730     4.7370     0.5840 ca         1 5E7      -0.110500
     17 C17         -1.3200     4.4480     1.1260 ca         1 5E7      -0.108000
     18 C18         -1.5550     3.1920     1.6650 ca         1 5E7      -0.110500
     19 C19         -0.5550     2.2290     1.6450 ca         1 5E7      -0.104500
     20 C20          2.4870    -0.5030    -0.6200 c3         1 5E7       0.165300
     21 O21          2.1430    -1.4870     0.3250 oh         1 5E7      -0.672000
     22 C22          3.9680    -0.1620    -0.5120 c3         1 5E7       0.118800
     23 N23          4.7170    -1.3950    -0.6820 n7         1 5E7      -0.878400
     24 C24          6.1060    -1.3330    -0.2890 c3         1 5E7       0.068500
     25 C25          6.7400    -2.7320    -0.3730 c3         1 5E7       0.174300
     26 O26          8.1400    -2.6450    -0.2140 oh         1 5E7      -0.646000
     27 C27          6.1120    -3.7000     0.6150 c3         1 5E7      -0.120100
     28 C28          6.9050    -0.3750    -1.1760 c          1 5E7       0.568100
     29 N29          7.6630     0.5240    -0.5440 ns         1 5E7      -0.494900
     30 C30          8.5010     1.4780    -1.2430 c3         1 5E7       0.104000
     31 C31          9.1840     2.4390    -0.2770 c3         1 5E7      -0.079700
     32 C32         10.1350     3.3420    -1.0540 c3         1 5E7      -0.088100
     33 C33          8.1760     3.2690     0.5130 c3         1 5E7      -0.088100
     34 O34          6.8190    -0.4390    -2.3970 o          1 5E7      -0.606100
     35 O35         -0.3680     1.9490    -2.1010 o          1 5E7      -0.590100
     36 C36         -2.5770    -0.5750    -0.8520 ca         1 5E7      -0.062000
     37 C37         -3.9250    -0.8030    -0.5860 ca         1 5E7      -0.149600
     38 C38         -4.4670    -2.1760    -0.3390 c          1 5E7       0.616700
     39 N39         -3.6220    -3.0330     0.2560 ns         1 5E7      -0.497900
     40 C40         -3.9790    -4.4070     0.5840 c3         1 5E7       0.160000
     41 C41         -4.6800    -4.4960     1.9370 c3         1 5E7      -0.108100
     42 C42         -2.7390    -5.2680     0.5090 ca         1 5E7      -0.100300
     43 C43         -2.6060    -6.2180    -0.4980 ca         1 5E7      -0.098500
     44 C44         -1.4660    -7.0070    -0.5850 ca         1 5E7      -0.110000
     45 C45         -0.4390    -6.8480     0.3340 ca         1 5E7      -0.104000
     46 C46         -0.5600    -5.9000     1.3420 ca         1 5E7      -0.110000
     47 C47         -1.7040    -5.1190     1.4310 ca         1 5E7      -0.098500
     48 O48         -5.6070    -2.4720    -0.6680 o          1 5E7      -0.600100
     49 C49         -4.8140     0.2640    -0.5770 ca         1 5E7      -0.010000
     50 H1          -4.3230     4.2750    -1.7520 h1         1 5E7       0.054033
     51 H2          -5.1800     3.1060    -2.7750 h1         1 5E7       0.054033
     52 H3          -6.0900     4.2590    -1.8180 h1         1 5E7       0.054033
     53 H4          -7.6350     4.1700    -0.0900 h1         1 5E7       0.105367
     54 H5          -7.8540     2.5010     0.5030 h1         1 5E7       0.105367
     55 H6          -7.7010     3.8550     1.6580 h1         1 5E7       0.105367
     56 H7          -2.6540     2.7790    -1.2690 ha         1 5E7       0.145000
     57 H8          -0.1740    -0.3510     0.0250 hn         1 5E7       0.317500
     58 H9           1.8170     1.4190    -1.2290 h1         1 5E7       0.087700
     59 H10          1.5960     0.6670     1.7230 hc         1 5E7       0.055700
     60 H11          2.7170     1.8160     1.0090 hc         1 5E7       0.055700
     61 H12          1.8800     3.9980     0.1120 ha         1 5E7       0.107000
     62 H13          0.1250     5.7180     0.1710 ha         1 5E7       0.117500
     63 H14         -2.1040     5.1940     1.1250 ha         1 5E7       0.128000
     64 H15         -2.5260     2.9510     2.0810 ha         1 5E7       0.117500
     65 H16         -0.7500     1.2500     2.0680 ha         1 5E7       0.107000
     66 H17          2.3100    -0.8750    -1.6430 h1         1 5E7       0.047700
     67 H18          2.8970    -2.0940     0.3490 ho         1 5E7       0.467000
     68 H19          4.2220     0.6200    -1.2410 h1         1 5E7       0.050200
     69 H20          4.1970     0.2340     0.4810 h1         1 5E7       0.050200
     70 H21          4.6590    -1.6940    -1.6500 hn         1 5E7       0.438000
     71 H23          6.1440    -0.9970     0.7550 h1         1 5E7       0.057700
     72 H24          6.5870    -3.1060    -1.3910 h1         1 5E7       0.091700
     73 H25          8.3300    -2.4050     0.7000 ho         1 5E7       0.434000
     74 H26          5.0370    -3.7690     0.4640 hc         1 5E7       0.046033
     75 H27          6.5360    -4.6980     0.4970 hc         1 5E7       0.046033
     76 H28          6.2870    -3.3750     1.6440 hc         1 5E7       0.046033
     77 H29          9.2560     0.9470    -1.8300 h1         1 5E7       0.055200
     78 H30          9.7790     1.8460     0.4280 hc         1 5E7       0.046700
     79 H31          9.5880     3.9740    -1.7580 hc         1 5E7       0.036700
     80 H32         10.6850     3.9990    -0.3810 hc         1 5E7       0.036700
     81 H33         10.8650     2.7640    -1.6230 hc         1 5E7       0.036700
     82 H34          7.5140     2.6530     1.1240 hc         1 5E7       0.036700
     83 H35          8.6850     3.9610     1.1850 hc         1 5E7       0.036700
     84 H36          7.5500     3.8580    -0.1610 hc         1 5E7       0.036700
     85 H37         -1.8890    -1.4090    -0.9130 ha         1 5E7       0.127000
     86 H38         -2.7690    -2.6740     0.6560 hn         1 5E7       0.315500
     87 H39         -4.6750    -4.7450    -0.1850 h1         1 5E7       0.081700
     88 H40         -4.0480    -4.1240     2.7440 hc         1 5E7       0.045700
     89 H41         -5.5960    -3.9060     1.9280 hc         1 5E7       0.045700
     90 H42         -4.9440    -5.5300     2.1610 hc         1 5E7       0.045700
     91 H43         -3.4020    -6.3450    -1.2220 ha         1 5E7       0.113500
     92 H44         -1.3820    -7.7440    -1.3730 ha         1 5E7       0.114000
     93 H45          0.4520    -7.4600     0.2680 ha         1 5E7       0.113000
     94 H46          0.2370    -5.7680     2.0620 ha         1 5E7       0.114000
     95 H47         -1.7810    -4.3900     2.2290 ha         1 5E7       0.113500
     96 H48         -5.8660     0.0960    -0.3890 ha         1 5E7       0.145000
     97 H22          7.7210     0.4860     0.4610 hn         1 5E7       0.309500
     98 H49          7.8890     2.0470    -1.9510 h1         1 5E7       0.055200
@<TRIPOS>BOND
     1     1     2 1   
     2     1    50 1   
     3     1    51 1   
     4     1    52 1   
     5     2     3 1   
     6     2     7 1   
     7     3     4 2   
     8     3     5 1   
     9     3     6 2   
    10     5    53 1   
    11     5    54 1   
    12     5    55 1   
    13     7     8 ar  
    14     7    49 ar  
    15     8     9 ar  
    16     8    56 1   
    17     9    10 1   
    18     9    36 ar  
    19    10    11 1   
    20    10    35 2   
    21    11    12 1   
    22    11    57 1   
    23    12    13 1   
    24    12    20 1   
    25    12    58 1   
    26    13    14 1   
    27    13    59 1   
    28    13    60 1   
    29    14    15 ar  
    30    14    19 ar  
    31    15    16 ar  
    32    15    61 1   
    33    16    17 ar  
    34    16    62 1   
    35    17    18 ar  
    36    17    63 1   
    37    18    19 ar  
    38    18    64 1   
    39    19    65 1   
    40    20    21 1   
    41    20    22 1   
    42    20    66 1   
    43    21    67 1   
    44    22    23 1   
    45    22    68 1   
    46    22    69 1   
    47    23    24 1   
    48    23    70 1   
    49    24    25 1   
    50    24    28 1   
    51    24    71 1   
    52    25    26 1   
    53    25    27 1   
    54    25    72 1   
    55    26    73 1   
    56    27    74 1   
    57    27    75 1   
    58    27    76 1   
    59    28    29 1   
    60    28    34 2   
    61    29    30 1   
    62    29    97 1   
    63    30    31 1   
    64    30    77 1   
    65    30    98 1   
    66    31    32 1   
    67    31    33 1   
    68    31    78 1   
    69    32    79 1   
    70    32    80 1   
    71    32    81 1   
    72    33    82 1   
    73    33    83 1   
    74    33    84 1   
    75    36    37 ar  
    76    36    85 1   
    77    37    38 1   
    78    37    49 ar  
    79    38    39 1   
    80    38    48 2   
    81    39    40 1   
    82    39    86 1   
    83    40    41 1   
    84    40    42 1   
    85    40    87 1   
    86    41    88 1   
    87    41    89 1   
    88    41    90 1   
    89    42    43 ar  
    90    42    47 ar  
    91    43    44 ar  
    92    43    91 1   
    93    44    45 ar  
    94    44    92 1   
    95    45    46 ar  
    96    45    93 1   
    97    46    47 ar  
    98    46    94 1   
    99    47    95 1   
   100    49    96 1   
@<TRIPOS>SUBSTRUCTURE
     1 5E7         1 TEMP              0 ****  ****    0 ROOT
