@<TRIPOS>MOLECULE
5E8
   55    56     1     0     0
SMALL
abcg2


@<TRIPOS>ATOM
      1 O1          -3.2960     0.1260     1.4200 o          1 5E8      -0.544000
      2 O2          -3.4590    -3.0630     0.1050 os         1 5E8      -0.453100
      3 C3           3.8130    -0.1540     0.4270 c3         1 5E8      -0.024100
      4 C5           5.6520    -0.3150    -1.2830 ca         1 5E8      -0.107500
      5 C7           7.8690     0.5170    -0.8520 ca         1 5E8      -0.112000
      6 C8           7.4690     0.8930     0.4230 ca         1 5E8      -0.110000
      7 C12         -3.1580     1.3770    -0.6890 c5         1 5E8      -0.152700
      8 C9           6.1630     0.6660     0.8400 ca         1 5E8      -0.107500
      9 C13         -3.7380     0.9710     0.6580 c          1 5E8       0.562000
     10 C14         -1.3490    -0.8640    -1.5610 c2         1 5E8      -0.174200
     11 C15         -1.9710    -2.0130    -1.3140 ce         1 5E8      -0.239200
     12 C16         -2.2370    -2.5540     0.0400 c          1 5E8       0.597300
     13 C17          1.4280     0.5470     0.2370 c          1 5E8       0.598100
     14 C18         -3.9070    -3.5780     1.3680 c3         1 5E8       0.166600
     15 O3          -1.4490    -2.5680     0.9530 o          1 5E8      -0.461000
     16 C19         -5.3350    -4.0360     1.1950 c3         1 5E8      -0.096100
     17 C10         -0.8730     0.1530    -0.5660 c3         1 5E8       0.136900
     18 C11         -1.6390     1.4730    -0.7510 c3         1 5E8      -0.073400
     19 C26         -3.8650     2.7010    -0.9850 c5         1 5E8      -0.092400
     20 C25         -5.1960     2.5800    -0.2440 c5         1 5E8       0.101000
     21 N1          -4.8520     1.6970     0.8510 ns         1 5E8      -0.516900
     22 N            0.5470     0.3750    -0.7640 ns         1 5E8      -0.503900
     23 O4           1.1250     0.4660     1.4190 o          1 5E8      -0.583100
     24 C2           2.8480     0.8670    -0.1980 c3         1 5E8      -0.135700
     25 C1           3.1820     2.3010     0.2100 c3         1 5E8      -0.084100
     26 C4           5.2360     0.0630    -0.0060 ca         1 5E8      -0.078300
     27 C6           6.9550    -0.0900    -1.7040 ca         1 5E8      -0.110000
     28 H2           3.4960    -1.1610     0.1430 hc         1 5E8       0.064200
     29 H3           4.9480    -0.7950    -1.9530 ha         1 5E8       0.111000
     30 H4           8.8870     0.6910    -1.1770 ha         1 5E8       0.111000
     31 H5           8.1750     1.3620     1.0980 ha         1 5E8       0.111000
     32 H6          -3.5030     0.6190    -1.4030 hc         1 5E8       0.073700
     33 H7           5.8600     0.9640     1.8370 ha         1 5E8       0.111000
     34 H8          -1.2300    -0.5790    -2.6040 ha         1 5E8       0.165000
     35 H10         -2.3500    -2.5960    -2.1460 ha         1 5E8       0.194000
     36 H12         -3.2670    -4.4060     1.6790 h1         1 5E8       0.054200
     37 H13         -3.8360    -2.7930     2.1220 h1         1 5E8       0.054200
     38 H14         -5.7060    -4.4180     2.1460 hc         1 5E8       0.043033
     39 H15         -5.9840    -3.2160     0.8890 hc         1 5E8       0.043033
     40 H16         -5.4160    -4.8370     0.4600 hc         1 5E8       0.043033
     41 H17         -1.0080    -0.2070     0.4490 h1         1 5E8       0.133700
     42 H18         -1.3720     1.8910    -1.7270 hc         1 5E8       0.048700
     43 H19         -1.2830     2.1860    -0.0020 hc         1 5E8       0.048700
     44 H20         -3.2850     3.5280    -0.5670 hc         1 5E8       0.057200
     45 H21         -3.9950     2.8870    -2.0490 hc         1 5E8       0.057200
     46 H22         -5.5630     3.5380     0.1230 h1         1 5E8       0.044700
     47 H23         -5.9740     2.1410    -0.8760 h1         1 5E8       0.044700
     48 H24         -5.4800     1.5160     1.6190 hn         1 5E8       0.328500
     49 H25          0.8680     0.5340    -1.7070 hn         1 5E8       0.303500
     50 H26          2.9220     0.7880    -1.2870 hc         1 5E8       0.046700
     51 H27          4.1730     2.5800    -0.1460 hc         1 5E8       0.042700
     52 H28          2.4680     3.0080    -0.2130 hc         1 5E8       0.042700
     53 H29          3.1700     2.4120     1.2940 hc         1 5E8       0.042700
     54 H30          7.2580    -0.3930    -2.6980 ha         1 5E8       0.111000
     55 H1           3.7410    -0.0910     1.5140 hc         1 5E8       0.064200
@<TRIPOS>BOND
     1     1     9 2   
     2     2    12 1   
     3     2    14 1   
     4     3    24 1   
     5     3    26 1   
     6     3    28 1   
     7     3    55 1   
     8     4    26 ar  
     9     4    27 ar  
    10     4    29 1   
    11     5     6 ar  
    12     5    27 ar  
    13     5    30 1   
    14     6     8 ar  
    15     6    31 1   
    16     7     9 1   
    17     7    18 1   
    18     7    19 1   
    19     7    32 1   
    20     8    26 ar  
    21     8    33 1   
    22     9    21 1   
    23    10    11 2   
    24    10    17 1   
    25    10    34 1   
    26    11    12 1   
    27    11    35 1   
    28    12    15 2   
    29    13    22 1   
    30    13    23 2   
    31    13    24 1   
    32    14    16 1   
    33    14    36 1   
    34    14    37 1   
    35    16    38 1   
    36    16    39 1   
    37    16    40 1   
    38    17    18 1   
    39    17    22 1   
    40    17    41 1   
    41    18    42 1   
    42    18    43 1   
    43    19    20 1   
    44    19    44 1   
    45    19    45 1   
    46    20    21 1   
    47    20    46 1   
    48    20    47 1   
    49    21    48 1   
    50    22    49 1   
    51    24    25 1   
    52    24    50 1   
    53    25    51 1   
    54    25    52 1   
    55    25    53 1   
    56    27    54 1   
@<TRIPOS>SUBSTRUCTURE
     1 5E8         1 TEMP              0 ****  ****    0 ROOT
