@<TRIPOS>MOLECULE
5E8
   55    56     1     0     0
SMALL
No Charge or Current Charge


@<TRIPOS>ATOM
      1 O1          -3.5250     1.8840     1.8470 o          1 5E8      -0.544000
      2 O2          -2.0160    -3.6100    -0.1250 os         1 5E8      -0.453100
      3 C3           3.0100    -0.1440     0.7640 c3         1 5E8      -0.024100
      4 C5           4.5270    -1.4780    -0.7820 ca         1 5E8      -0.107500
      5 C7           6.9510    -1.3980    -0.5700 ca         1 5E8      -0.112000
      6 C8           6.8260    -0.5070     0.5080 ca         1 5E8      -0.110000
      7 C12         -3.5290     2.5490    -0.5670 c5         1 5E8      -0.152700
      8 C9           5.5510    -0.1010     0.9420 ca         1 5E8      -0.107500
      9 C13         -4.0340     2.4270     0.8800 c          1 5E8       0.562000
     10 C14         -2.1720    -0.1720    -1.3700 c2         1 5E8      -0.174200
     11 C15         -2.2670    -1.5110    -1.1580 ce         1 5E8      -0.239200
     12 C16         -1.7380    -2.2760     0.0110 c          1 5E8       0.597300
     13 C17          0.8850     1.1420     0.2350 c          1 5E8       0.598100
     14 C18         -1.5730    -4.5000     0.9140 c3         1 5E8       0.166600
     15 O3          -1.1380    -1.7930     0.9600 o          1 5E8      -0.461000
     16 C19         -2.0050    -5.9220     0.5190 c3         1 5E8      -0.096100
     17 C10         -1.5090     0.8680    -0.4840 c3         1 5E8       0.136900
     18 C11         -2.0040     2.3100    -0.7670 c3         1 5E8      -0.073400
     19 C26         -4.0030     3.9740    -0.9610 c5         1 5E8      -0.092400
     20 C25         -5.3750     4.0510    -0.2370 c5         1 5E8       0.101000
     21 N1          -5.0720     3.3130     0.9880 ns         1 5E8      -0.516900
     22 N           -0.0660     0.7630    -0.6850 ns         1 5E8      -0.503900
     23 O4           0.5910     1.6450     1.3110 o          1 5E8      -0.583100
     24 C2           2.3420     0.8780    -0.1920 c3         1 5E8      -0.135700
     25 C1           3.1340     2.2050    -0.3050 c3         1 5E8      -0.084100
     26 C4           4.3940    -0.5840     0.2990 ca         1 5E8      -0.078300
     27 C6           5.8010    -1.8840    -1.2150 ca         1 5E8      -0.110000
     28 H2           2.3610    -1.0250     0.8490 hc         1 5E8       0.064200
     29 H3           3.6420    -1.8590    -1.2870 ha         1 5E8       0.111000
     30 H4           7.9370    -1.7120    -0.9060 ha         1 5E8       0.111000
     31 H5           7.7150    -0.1300     1.0080 ha         1 5E8       0.111000
     32 H6          -4.1040     1.8400    -1.1740 hc         1 5E8       0.073700
     33 H7           5.4650     0.5910     1.7760 ha         1 5E8       0.111000
     34 H8          -2.6000     0.2440    -2.2840 ha         1 5E8       0.165000
     35 H10         -2.7720    -2.1310    -1.8970 ha         1 5E8       0.194000
     36 H12         -0.4800    -4.4670     1.0200 h1         1 5E8       0.054200
     37 H13         -2.0250    -4.2340     1.8790 h1         1 5E8       0.054200
     38 H14         -1.6880    -6.6400     1.2840 hc         1 5E8       0.043033
     39 H15         -3.0960    -5.9810     0.4220 hc         1 5E8       0.043033
     40 H16         -1.5520    -6.2130    -0.4360 hc         1 5E8       0.043033
     41 H17         -1.7280     0.6330     0.5670 h1         1 5E8       0.133700
     42 H18         -1.7330     2.5700    -1.7980 hc         1 5E8       0.048700
     43 H19         -1.4470     3.0040    -0.1250 hc         1 5E8       0.048700
     44 H20         -3.3200     4.7420    -0.5770 hc         1 5E8       0.057200
     45 H21         -4.0870     4.1190    -2.0440 hc         1 5E8       0.057200
     46 H22         -5.6830     5.0870    -0.0460 h1         1 5E8       0.044700
     47 H23         -6.1640     3.5530    -0.8160 h1         1 5E8       0.044700
     48 H24         -5.4940     3.4650     1.8960 hn         1 5E8       0.328500
     49 H25          0.2680     0.3470    -1.5440 hn         1 5E8       0.303500
     50 H26          2.3210     0.4280    -1.1930 hc         1 5E8       0.046700
     51 H27          4.1400     2.0290    -0.7030 hc         1 5E8       0.042700
     52 H28          2.6220     2.9010    -0.9810 hc         1 5E8       0.042700
     53 H29          3.2320     2.6880     0.6750 hc         1 5E8       0.042700
     54 H30          5.8970    -2.5740    -2.0510 ha         1 5E8       0.111000
     55 H1           3.0640     0.2850     1.7730 hc         1 5E8       0.064200
@<TRIPOS>BOND
     1     1     9 2   
     2     2    12 1   
     3     2    14 1   
     4     3    24 1   
     5     3    26 1   
     6     3    28 1   
     7     3    55 1   
     8     4    26 ar  
     9     4    27 ar  
    10     4    29 1   
    11     5     6 ar  
    12     5    27 ar  
    13     5    30 1   
    14     6     8 ar  
    15     6    31 1   
    16     7     9 1   
    17     7    18 1   
    18     7    19 1   
    19     7    32 1   
    20     8    26 ar  
    21     8    33 1   
    22     9    21 1   
    23    10    11 2   
    24    10    17 1   
    25    10    34 1   
    26    11    12 1   
    27    11    35 1   
    28    12    15 2   
    29    13    22 1   
    30    13    23 2   
    31    13    24 1   
    32    14    16 1   
    33    14    36 1   
    34    14    37 1   
    35    16    38 1   
    36    16    39 1   
    37    16    40 1   
    38    17    18 1   
    39    17    22 1   
    40    17    41 1   
    41    18    42 1   
    42    18    43 1   
    43    19    20 1   
    44    19    44 1   
    45    19    45 1   
    46    20    21 1   
    47    20    46 1   
    48    20    47 1   
    49    21    48 1   
    50    22    49 1   
    51    24    25 1   
    52    24    50 1   
    53    25    51 1   
    54    25    52 1   
    55    25    53 1   
    56    27    54 1   
@<TRIPOS>SUBSTRUCTURE
     1 5E8         1 TEMP              0 ****  ****    0 ROOT
