@<TRIPOS>MOLECULE
5E9
   71    72     1     0     0
SMALL
No Charge or Current Charge


@<TRIPOS>ATOM
      1 C2           0.8740     0.0650     0.3960 c3         1 5E9      -0.123700
      2 C3           1.3710     1.1070    -0.6480 c3         1 5E9      -0.019100
      3 C4           2.8340     1.5160    -0.4810 ca         1 5E9      -0.099300
      4 C5           3.3070     2.0190     0.7490 ca         1 5E9      -0.086000
      5 C6           4.6560     2.3870     0.8930 ca         1 5E9      -0.150500
      6 C7           5.5340     2.2640    -0.1940 ca         1 5E9       0.167000
      7 C8           5.0720     1.7790    -1.4260 ca         1 5E9      -0.150500
      8 O1          -5.6270    -1.2510    -0.9090 o          1 5E9      -0.554000
      9 N1          -5.1490    -3.4670    -0.6550 ns         1 5E9      -0.512900
     10 N2           2.8140    -4.4750    -0.9040 n8         1 5E9      -1.000200
     11 N           -1.5060    -0.0150     1.0350 ns         1 5E9      -0.513900
     12 C            2.3690    -1.9600    -0.5570 c          1 5E9       0.522100
     13 O            2.1090    -1.6820    -1.7220 o          1 5E9      -0.505100
     14 O3          -2.9170     2.2310    -0.7790 o          1 5E9      -0.472000
     15 C16         -3.5240     2.7460     0.1500 c          1 5E9       0.605300
     16 O2          -3.9380     4.0520     0.1680 os         1 5E9      -0.447100
     17 C18         -3.6410     4.8690    -0.9770 c3         1 5E9       0.168600
     18 C19         -4.2070     6.2710    -0.7020 c3         1 5E9      -0.096100
     19 C14         -3.6640     0.7640     1.7560 c2         1 5E9      -0.180200
     20 C10         -2.9360    -0.2880     0.9390 c3         1 5E9       0.141900
     21 C11         -3.2530    -1.7360     1.3940 c3         1 5E9      -0.084400
     22 C12         -4.7400    -2.1740     1.2300 c5         1 5E9      -0.151700
     23 C26         -5.0120    -3.6420     1.6580 c5         1 5E9      -0.092400
     24 C25         -4.6890    -4.4210     0.3520 c5         1 5E9       0.101000
     25 C13         -5.1610    -2.1620    -0.2450 c          1 5E9       0.567000
     26 C17         -0.5730    -0.3830     0.0910 c          1 5E9       0.610100
     27 O4          -0.8790    -1.0170    -0.9080 o          1 5E9      -0.569100
     28 C21          1.8210    -1.1560     0.6470 c3         1 5E9      -0.185400
     29 C20          3.2450    -3.2170    -0.1990 c3         1 5E9       0.076500
     30 C22          4.7750    -2.9570    -0.4110 c3         1 5E9      -0.048700
     31 C24          5.2690    -1.6630     0.2830 c3         1 5E9      -0.088100
     32 C23          5.6520    -4.1540     0.0430 c3         1 5E9      -0.088100
     33 C9           3.7240     1.4060    -1.5700 ca         1 5E9      -0.086000
     34 F1           6.8300     2.6180    -0.0550 f          1 5E9      -0.180000
     35 H1           0.8300     0.5970     1.3530 hc         1 5E9       0.065700
     36 H2           1.1970     0.7210    -1.6600 hc         1 5E9       0.076200
     37 H3           0.7380     2.0000    -0.5740 hc         1 5E9       0.076200
     38 H4           2.6320     2.1250     1.5960 ha         1 5E9       0.118000
     39 H5           5.0210     2.7700     1.8430 ha         1 5E9       0.132000
     40 H6           5.7570     1.6880    -2.2640 ha         1 5E9       0.132000
     41 H7          -5.4710    -3.6920    -1.5900 hn         1 5E9       0.331500
     42 H8           1.8240    -4.6650    -0.7000 hn         1 5E9       0.404000
     43 H9           2.8140    -4.3050    -1.9170 hn         1 5E9       0.404000
     44 H11         -1.1730     0.5140     1.8310 hn         1 5E9       0.299500
     45 H12         -2.5570     4.9370    -1.1410 h1         1 5E9       0.052700
     46 H13         -4.1060     4.4580    -1.8830 h1         1 5E9       0.052700
     47 H14         -5.2920     6.2280    -0.5500 hc         1 5E9       0.043367
     48 H15         -3.7440     6.7060     0.1920 hc         1 5E9       0.043367
     49 H16         -4.0040     6.9350    -1.5510 hc         1 5E9       0.043367
     50 H17         -4.4460     2.6960     2.1190 ha         1 5E9       0.194000
     51 H19         -4.0030     0.4040     2.7290 ha         1 5E9       0.162000
     52 H21         -3.2340    -0.1910    -0.1150 h1         1 5E9       0.127700
     53 H22         -2.6110    -2.4230     0.8310 hc         1 5E9       0.048200
     54 H23         -2.9560    -1.8430     2.4450 hc         1 5E9       0.048200
     55 H24         -5.3530    -1.4510     1.7790 hc         1 5E9       0.081700
     56 H25         -4.4090    -3.9710     2.5120 hc         1 5E9       0.056200
     57 H26         -6.0650    -3.7760     1.9330 hc         1 5E9       0.056200
     58 H27         -5.2190    -5.3820     0.3050 h1         1 5E9       0.047200
     59 H28         -3.6120    -4.6160     0.2540 h1         1 5E9       0.047200
     60 H29          2.6870    -0.8540     1.2470 hc         1 5E9       0.068200
     61 H30          1.3650    -1.8710     1.3430 hc         1 5E9       0.068200
     62 H31          3.1000    -3.3920     0.8770 h1         1 5E9       0.067700
     63 H32          4.9410    -2.8220    -1.4880 hc         1 5E9       0.060700
     64 H33          5.0960    -1.7070     1.3650 hc         1 5E9       0.037367
     65 H34          6.3430    -1.5180     0.1150 hc         1 5E9       0.037367
     66 H35          4.7580    -0.7800    -0.1130 hc         1 5E9       0.037367
     67 H36          5.4200    -5.0610    -0.5290 hc         1 5E9       0.037367
     68 H37          6.7150    -3.9360    -0.1100 hc         1 5E9       0.037367
     69 H38          5.4970    -4.3700     1.1070 hc         1 5E9       0.037367
     70 H39          3.3740     1.0250    -2.5280 ha         1 5E9       0.118000
     71 C15         -3.9120     2.0570     1.4180 ce         1 5E9      -0.225200
@<TRIPOS>BOND
     1     1     2 1   
     2     1    26 1   
     3     1    28 1   
     4     1    35 1   
     5     2     3 1   
     6     2    36 1   
     7     2    37 1   
     8     3     4 ar  
     9     3    33 ar  
    10     4     5 ar  
    11     4    38 1   
    12     5     6 ar  
    13     5    39 1   
    14     6     7 ar  
    15     6    34 1   
    16     7    33 ar  
    17     7    40 1   
    18     8    25 2   
    19     9    24 1   
    20     9    25 1   
    21     9    41 1   
    22    10    29 1   
    23    10    42 1   
    24    10    43 1   
    25    11    20 1   
    26    11    26 1   
    27    11    44 1   
    28    12    13 2   
    29    12    28 1   
    30    12    29 1   
    31    14    15 2   
    32    15    16 1   
    33    15    71 1   
    34    16    17 1   
    35    17    18 1   
    36    17    45 1   
    37    17    46 1   
    38    18    47 1   
    39    18    48 1   
    40    18    49 1   
    41    19    20 1   
    42    19    51 1   
    43    19    71 2   
    44    20    21 1   
    45    20    52 1   
    46    21    22 1   
    47    21    53 1   
    48    21    54 1   
    49    22    23 1   
    50    22    25 1   
    51    22    55 1   
    52    23    24 1   
    53    23    56 1   
    54    23    57 1   
    55    24    58 1   
    56    24    59 1   
    57    26    27 2   
    58    28    60 1   
    59    28    61 1   
    60    29    30 1   
    61    29    62 1   
    62    30    31 1   
    63    30    32 1   
    64    30    63 1   
    65    31    64 1   
    66    31    65 1   
    67    31    66 1   
    68    32    67 1   
    69    32    68 1   
    70    32    69 1   
    71    33    70 1   
    72    50    71 1   
@<TRIPOS>SUBSTRUCTURE
     1 5E9         1 TEMP              0 ****  ****    0 ROOT
