@<TRIPOS>MOLECULE
5E9
   71    72     1     0     0
SMALL
bcc


@<TRIPOS>ATOM
      1 C2           1.8420     1.0090    -0.0390 c3         1 5E9      -0.123700
      2 C3           2.7000     1.2300    -1.2900 c3         1 5E9      -0.019100
      3 C4           4.1430     1.4880    -0.9540 ca         1 5E9      -0.099300
      4 C5           4.5250     2.6680    -0.3160 ca         1 5E9      -0.104000
      5 C6           5.8470     2.9150     0.0180 ca         1 5E9      -0.168500
      6 C7           6.7970     1.9600    -0.2950 ca         1 5E9       0.131900
      7 C8           6.4650     0.7810    -0.9300 ca         1 5E9      -0.168500
      8 O1          -4.6880     0.1310    -1.0290 o          1 5E9      -0.629500
      9 N1          -4.3190    -1.9630    -1.8680 ns         1 5E9      -0.579900
     10 N2           0.9800    -3.2890     1.7080 n8         1 5E9      -0.889800
     11 N           -0.4550     0.6790     0.6510 ns         1 5E9      -0.580900
     12 C            1.9380    -1.5430     0.2880 c          1 5E9       0.522100
     13 O            1.3890    -1.7080    -0.7790 o          1 5E9      -0.505100
     14 O3          -3.4790     2.9630    -0.2410 o          1 5E9      -0.521000
     15 C16         -4.1150     2.5410     0.6930 c          1 5E9       0.654300
     16 O2          -5.4110     2.7610     0.8650 os         1 5E9      -0.423900
     17 C18         -6.1170     3.4640    -0.1680 c3         1 5E9       0.145400
     18 C19         -7.5440     3.6430     0.2880 c3         1 5E9      -0.096100
     19 C14         -2.5840     0.8740     1.7430 c2         1 5E9      -0.130200
     20 C10         -1.8730     0.3950     0.5120 c3         1 5E9       0.141900
     21 C11         -2.0770    -1.1170     0.3380 c3         1 5E9      -0.084400
     22 C12         -3.5310    -1.5960     0.2760 c5         1 5E9      -0.151700
     23 C26         -3.6150    -3.1040     0.0240 c5         1 5E9      -0.092400
     24 C25         -3.7140    -3.2250    -1.5000 c5         1 5E9       0.101000
     25 C13         -4.2570    -1.0080    -0.9260 c          1 5E9       0.709500
     26 C17          0.3590     0.9150    -0.3980 c          1 5E9       0.677100
     27 O4          -0.0600     1.0780    -1.5310 o          1 5E9      -0.569100
     28 C21          2.3030    -0.1800     0.8070 c3         1 5E9      -0.185400
     29 C20          2.2280    -2.7230     1.2160 c3         1 5E9       0.076500
     30 C22          3.0820    -3.7860     0.5150 c3         1 5E9      -0.048700
     31 C24          4.3940    -3.1850     0.0180 c3         1 5E9      -0.088100
     32 C23          3.3570    -4.9660     1.4400 c3         1 5E9      -0.088100
     33 C9           5.1330     0.5580    -1.2550 ca         1 5E9      -0.104000
     34 F1           8.0820     2.1920     0.0250 f          1 5E9      -0.144900
     35 H1           1.9440     1.8950     0.5990 hc         1 5E9       0.065700
     36 H2           2.6240     0.3680    -1.9530 hc         1 5E9       0.076200
     37 H3           2.3000     2.0840    -1.8400 hc         1 5E9       0.076200
     38 H4           3.7770     3.4170    -0.0780 ha         1 5E9       0.136000
     39 H5           6.1360     3.8350     0.5090 ha         1 5E9       0.150000
     40 H6           7.2270     0.0510    -1.1700 ha         1 5E9       0.150000
     41 H7          -4.6740    -1.7790    -2.7930 hn         1 5E9       0.331500
     42 H8           0.4440    -2.5990     2.2220 hn         1 5E9       0.348800
     43 H9           0.4040    -3.5950     0.9330 hn         1 5E9       0.348800
     44 H11         -0.0490     0.5590     1.5650 hn         1 5E9       0.299500
     45 H12         -5.6430     4.4300    -0.3530 h1         1 5E9       0.052700
     46 H13         -6.0710     2.8840    -1.0920 h1         1 5E9       0.052700
     47 H14         -8.0310     2.6850     0.4740 hc         1 5E9       0.043367
     48 H15         -7.6040     4.2460     1.1940 hc         1 5E9       0.043367
     49 H16         -8.1070     4.1560    -0.4920 hc         1 5E9       0.043367
     50 H17         -4.0380     1.9290     2.7920 ha         1 5E9       0.144000
     51 H19         -2.2900     0.3770     2.6650 ha         1 5E9       0.112000
     52 H21         -2.2300     0.9230    -0.3660 h1         1 5E9       0.127700
     53 H22         -1.5370    -1.4310    -0.5600 hc         1 5E9       0.048200
     54 H23         -1.6000    -1.6280     1.1810 hc         1 5E9       0.048200
     55 H24         -4.0480    -1.3050     1.1920 hc         1 5E9       0.081700
     56 H25         -2.7630    -3.6520     0.4270 hc         1 5E9       0.056200
     57 H26         -4.5160    -3.5090     0.4840 hc         1 5E9       0.056200
     58 H27         -4.3370    -4.0630    -1.8110 h1         1 5E9       0.047200
     59 H28         -2.7350    -3.3490    -1.9710 h1         1 5E9       0.047200
     60 H29          3.3930    -0.1560     0.9280 hc         1 5E9       0.068200
     61 H30          1.9450    -0.1070     1.8400 hc         1 5E9       0.068200
     62 H31          2.7850    -2.3580     2.0860 h1         1 5E9       0.067700
     63 H32          2.5180    -4.1460    -0.3530 hc         1 5E9       0.060700
     64 H33          4.9670    -2.7540     0.8420 hc         1 5E9       0.037367
     65 H34          5.0140    -3.9500    -0.4500 hc         1 5E9       0.037367
     66 H35          4.2410    -2.4010    -0.7250 hc         1 5E9       0.037367
     67 H36          2.4380    -5.4340     1.7850 hc         1 5E9       0.037367
     68 H37          3.9510    -5.7220     0.9240 hc         1 5E9       0.037367
     69 H38          3.9220    -4.6470     2.3200 hc         1 5E9       0.037367
     70 H39          4.8650    -0.3610    -1.7620 ha         1 5E9       0.136000
     71 C15         -3.5680     1.7640     1.8290 ce         1 5E9      -0.175200
@<TRIPOS>BOND
     1     1     2 1   
     2     1    26 1   
     3     1    28 1   
     4     1    35 1   
     5     2     3 1   
     6     2    36 1   
     7     2    37 1   
     8     3     4 ar  
     9     3    33 ar  
    10     4     5 ar  
    11     4    38 1   
    12     5     6 ar  
    13     5    39 1   
    14     6     7 ar  
    15     6    34 1   
    16     7    33 ar  
    17     7    40 1   
    18     8    25 2   
    19     9    24 1   
    20     9    25 1   
    21     9    41 1   
    22    10    29 1   
    23    10    42 1   
    24    10    43 1   
    25    11    20 1   
    26    11    26 1   
    27    11    44 1   
    28    12    13 2   
    29    12    28 1   
    30    12    29 1   
    31    14    15 2   
    32    15    16 1   
    33    15    71 1   
    34    16    17 1   
    35    17    18 1   
    36    17    45 1   
    37    17    46 1   
    38    18    47 1   
    39    18    48 1   
    40    18    49 1   
    41    19    20 1   
    42    19    51 1   
    43    19    71 2   
    44    20    21 1   
    45    20    52 1   
    46    21    22 1   
    47    21    53 1   
    48    21    54 1   
    49    22    23 1   
    50    22    25 1   
    51    22    55 1   
    52    23    24 1   
    53    23    56 1   
    54    23    57 1   
    55    24    58 1   
    56    24    59 1   
    57    26    27 2   
    58    28    60 1   
    59    28    61 1   
    60    29    30 1   
    61    29    62 1   
    62    30    31 1   
    63    30    32 1   
    64    30    63 1   
    65    31    64 1   
    66    31    65 1   
    67    31    66 1   
    68    32    67 1   
    69    32    68 1   
    70    32    69 1   
    71    33    70 1   
    72    50    71 1   
@<TRIPOS>SUBSTRUCTURE
     1 5E9         1 TEMP              0 ****  ****    0 ROOT
