@<TRIPOS>MOLECULE
5EA
   50    53     1     0     0
SMALL
abcg2


@<TRIPOS>ATOM
      1 I1          45.0540    96.1370    52.9670 i          1 5EA      -0.304000
      2 C23         43.0500    96.7950    53.0550 ca         1 5EA       0.188000
      3 C21         42.0330    95.8880    53.3190 ca         1 5EA      -0.061000
      4 C16         40.7150    96.3240    53.3750 ca         1 5EA      -0.137000
      5 C19         42.7610    98.1390    52.8390 ca         1 5EA      -0.089000
      6 C15         41.4450    98.5400    52.9120 ca         1 5EA       0.128000
      7 F20         41.1480    99.8460    52.6970 f          1 5EA      -0.173000
      8 C10         40.3870    97.6680    53.1840 ca         1 5EA       0.283000
      9 N5          39.0920    98.1860    53.2110 nu         1 5EA      -0.955000
     10 C2          37.9580    97.4730    53.5710 ca         1 5EA       0.329000
     11 C6          37.9030    96.7600    54.7700 ca         1 5EA       0.082000
     12 F1          38.9500    96.7880    55.6140 f          1 5EA      -0.148000
     13 C11         36.7770    96.0460    55.1390 ca         1 5EA       0.179000
     14 F17         36.8010    95.3830    56.3090 f          1 5EA      -0.154000
     15 C9          35.6430    96.0330    54.3480 ca         1 5EA      -0.163000
     16 C4          35.6530    96.7720    53.1780 ca         1 5EA      -0.040000
     17 C1          36.7850    97.4900    52.7750 ca         1 5EA      -0.187500
     18 C3          36.7380    98.2690    51.5560 cc         1 5EA       0.474500
     19 O7          35.6720    98.1030    50.7030 os         1 5EA      -0.323000
     20 C13         35.9230    98.9960    49.7100 cc         1 5EA       0.687900
     21 N14         37.0340    99.6610    49.9080 nd         1 5EA      -0.428000
     22 N8          37.5470    99.1750    51.1110 nd         1 5EA      -0.362000
     23 N18         35.0650    99.0680    48.6910 nu         1 5EA      -0.928100
     24 C22         33.7970    98.3470    48.6540 c3         1 5EA       0.193800
     25 C24         32.7350    98.9930    49.5650 c3         1 5EA       0.150800
     26 N26         31.4680    98.2880    49.6610 n3         1 5EA      -0.733600
     27 C27         30.7180    98.2100    48.4110 c6         1 5EA       0.136300
     28 C29         29.3330    97.6520    48.6870 c6         1 5EA       0.152100
     29 O31         29.4090    96.3730    49.3170 os         1 5EA      -0.458000
     30 C30         30.1420    96.4500    50.5400 c6         1 5EA       0.152100
     31 C28         31.5460    96.9810    50.3060 c6         1 5EA       0.136300
     32 H21         42.2520    94.8410    53.4710 ha         1 5EA       0.132000
     33 H16         39.9320    95.6010    53.5530 ha         1 5EA       0.125000
     34 H19         43.5270    98.8710    52.6230 ha         1 5EA       0.146000
     35 HN5         38.9150    98.9120    52.5210 hn         1 5EA       0.536000
     36 H9          34.7750    95.4710    54.6600 ha         1 5EA       0.143000
     37 H4          34.7690    96.7940    52.5580 ha         1 5EA       0.132000
     38 H18         35.2240    99.8140    48.0320 hn         1 5EA       0.524000
     39 H221        33.9770    97.3130    48.9460 h1         1 5EA       0.063200
     40 H222        33.4680    98.3440    47.6170 h1         1 5EA       0.063200
     41 H241        32.5400   100.0060    49.2030 h1         1 5EA       0.061700
     42 H242        33.1480    99.0800    50.5730 h1         1 5EA       0.061700
     43 H271        31.2140    97.5670    47.6660 h1         1 5EA       0.041200
     44 H272        30.6310    99.2120    47.9840 h1         1 5EA       0.041200
     45 H291        28.7810    97.5110    47.7580 h1         1 5EA       0.054950
     46 H292        28.7770    98.3440    49.3330 h1         1 5EA       0.054950
     47 H301        30.1750    95.4390    50.9480 h1         1 5EA       0.054950
     48 H302        29.6110    97.1030    51.2440 h1         1 5EA       0.054950
     49 H281        32.0620    97.0850    51.2630 h1         1 5EA       0.041200
     50 H282        32.1020    96.2470    49.7010 h1         1 5EA       0.041200
@<TRIPOS>BOND
     1     1     2 1   
     2     2     3 ar  
     3     2     5 ar  
     4     3     4 ar  
     5     3    32 1   
     6     4     8 ar  
     7     4    33 1   
     8     5     6 ar  
     9     5    34 1   
    10     6     7 1   
    11     6     8 ar  
    12     8     9 1   
    13     9    10 1   
    14     9    35 1   
    15    10    11 ar  
    16    10    17 ar  
    17    11    12 1   
    18    11    13 ar  
    19    13    14 1   
    20    13    15 ar  
    21    15    16 ar  
    22    15    36 1   
    23    16    17 ar  
    24    16    37 1   
    25    17    18 1   
    26    18    19 1   
    27    18    22 2   
    28    19    20 1   
    29    20    21 2   
    30    20    23 1   
    31    21    22 1   
    32    23    24 1   
    33    23    38 1   
    34    24    25 1   
    35    24    39 1   
    36    24    40 1   
    37    25    26 1   
    38    25    41 1   
    39    25    42 1   
    40    26    27 1   
    41    26    31 1   
    42    27    28 1   
    43    27    43 1   
    44    27    44 1   
    45    28    29 1   
    46    28    45 1   
    47    28    46 1   
    48    29    30 1   
    49    30    31 1   
    50    30    47 1   
    51    30    48 1   
    52    31    49 1   
    53    31    50 1   
@<TRIPOS>SUBSTRUCTURE
     1 5EA         1 TEMP              0 ****  ****    0 ROOT
