@<TRIPOS>MOLECULE
5EA
   50    53     1     0     0
SMALL
No Charge or Current Charge


@<TRIPOS>ATOM
      1 I1          45.2480    95.8440    52.6520 i          1 5EA      -0.304000
      2 C23         43.2180    96.5780    52.8230 ca         1 5EA       0.188000
      3 C21         42.1760    95.6920    53.1430 ca         1 5EA      -0.061000
      4 C16         40.8550    96.1670    53.2520 ca         1 5EA      -0.137000
      5 C19         42.9450    97.9360    52.6030 ca         1 5EA      -0.089000
      6 C15         41.6270    98.4090    52.7120 ca         1 5EA       0.128000
      7 F20         41.3810    99.7230    52.4850 f          1 5EA      -0.173000
      8 C10         40.5680    97.5320    53.0560 ca         1 5EA       0.283000
      9 N5          39.2470    98.0070    53.1430 nu         1 5EA      -0.955000
     10 C2          38.0670    97.5130    53.7290 ca         1 5EA       0.329000
     11 C6          38.0970    96.8320    54.9770 ca         1 5EA       0.082000
     12 F1          39.2560    96.6940    55.6710 f          1 5EA      -0.148000
     13 C11         36.9140    96.3260    55.5370 ca         1 5EA       0.179000
     14 F17         36.9440    95.6780    56.7240 f          1 5EA      -0.154000
     15 C9          35.6910    96.4980    54.8810 ca         1 5EA      -0.163000
     16 C4          35.6430    97.1930    53.6640 ca         1 5EA      -0.040000
     17 C1          36.8220    97.7070    53.0730 ca         1 5EA      -0.187500
     18 C3          36.6920    98.4760    51.8240 cc         1 5EA       0.474500
     19 O7          35.5970    98.2750    51.0480 os         1 5EA      -0.323000
     20 C13         35.8250    99.1440    50.0460 cc         1 5EA       0.687900
     21 N14         36.9350    99.8340    50.1640 nd         1 5EA      -0.428000
     22 N8          37.5090    99.4030    51.3340 nd         1 5EA      -0.362000
     23 N18         34.9470    99.2780    49.0200 nu         1 5EA      -0.928100
     24 C22         33.7230    98.4800    48.8060 c3         1 5EA       0.193800
     25 C24         32.5470    98.9690    49.7030 c3         1 5EA       0.150800
     26 N26         31.2700    98.2040    49.6010 n3         1 5EA      -0.733600
     27 C27         30.6110    98.2770    48.2580 c6         1 5EA       0.136300
     28 C29         29.2430    97.5320    48.2520 c6         1 5EA       0.152100
     29 O31         29.4090    96.1650    48.7020 os         1 5EA      -0.458000
     30 C30         29.9740    96.0790    50.0340 c6         1 5EA       0.152100
     31 C28         31.3610    96.7880    50.0830 c6         1 5EA       0.136300
     32 H21         42.3930    94.6390    53.2990 ha         1 5EA       0.132000
     33 H16         40.0570    95.4660    53.4780 ha         1 5EA       0.125000
     34 H19         43.7500    98.6180    52.3460 ha         1 5EA       0.146000
     35 HN5         39.0870    98.8410    52.5680 hn         1 5EA       0.536000
     36 H9          34.7790    96.1080    55.3250 ha         1 5EA       0.143000
     37 H4          34.6750    97.3370    53.1870 ha         1 5EA       0.132000
     38 H18         35.2540    99.9340    48.3020 hn         1 5EA       0.524000
     39 H221        33.9290    97.4230    49.0250 h1         1 5EA       0.063200
     40 H222        33.4200    98.5420    47.7520 h1         1 5EA       0.063200
     41 H241        32.3570   100.0230    49.4590 h1         1 5EA       0.061700
     42 H242        32.8910    98.9530    50.7460 h1         1 5EA       0.061700
     43 H271        31.2530    97.8260    47.4870 h1         1 5EA       0.041200
     44 H272        30.4460    99.3250    47.9700 h1         1 5EA       0.041200
     45 H291        28.8220    97.5290    47.2360 h1         1 5EA       0.054950
     46 H292        28.5330    98.0480    48.9140 h1         1 5EA       0.054950
     47 H301        30.0850    95.0210    50.3120 h1         1 5EA       0.054950
     48 H302        29.2870    96.5510    50.7510 h1         1 5EA       0.054950
     49 H281        31.7380    96.7590    51.1150 h1         1 5EA       0.041200
     50 H282        32.0640    96.2130    49.4640 h1         1 5EA       0.041200
@<TRIPOS>BOND
     1     1     2 1   
     2     2     3 ar  
     3     2     5 ar  
     4     3     4 ar  
     5     3    32 1   
     6     4     8 ar  
     7     4    33 1   
     8     5     6 ar  
     9     5    34 1   
    10     6     7 1   
    11     6     8 ar  
    12     8     9 1   
    13     9    10 1   
    14     9    35 1   
    15    10    11 ar  
    16    10    17 ar  
    17    11    12 1   
    18    11    13 ar  
    19    13    14 1   
    20    13    15 ar  
    21    15    16 ar  
    22    15    36 1   
    23    16    17 ar  
    24    16    37 1   
    25    17    18 1   
    26    18    19 1   
    27    18    22 2   
    28    19    20 1   
    29    20    21 2   
    30    20    23 1   
    31    21    22 1   
    32    23    24 1   
    33    23    38 1   
    34    24    25 1   
    35    24    39 1   
    36    24    40 1   
    37    25    26 1   
    38    25    41 1   
    39    25    42 1   
    40    26    27 1   
    41    26    31 1   
    42    27    28 1   
    43    27    43 1   
    44    27    44 1   
    45    28    29 1   
    46    28    45 1   
    47    28    46 1   
    48    29    30 1   
    49    30    31 1   
    50    30    47 1   
    51    30    48 1   
    52    31    49 1   
    53    31    50 1   
@<TRIPOS>SUBSTRUCTURE
     1 5EA         1 TEMP              0 ****  ****    0 ROOT
