@<TRIPOS>MOLECULE
5EB
   69    71     1     0     0
SMALL
No Charge or Current Charge


@<TRIPOS>ATOM
      1 C2          -0.9450     0.2790     0.7120 c3         1 5EB       0.028700
      2 C3          -1.0760    -1.2390     0.4120 c3         1 5EB      -0.047100
      3 C4          -2.4420    -1.8160     0.7710 ca         1 5EB      -0.083300
      4 C5          -2.7800    -2.0520     2.1170 ca         1 5EB      -0.102500
      5 C6          -4.0450    -2.5680     2.4510 ca         1 5EB      -0.108500
      6 C7          -4.9780    -2.8510     1.4400 ca         1 5EB      -0.110000
      7 N1           4.7730     4.0690    -1.0310 ns         1 5EB      -0.513900
      8 N2          -2.0680     1.0360     0.1100 ns         1 5EB      -0.488900
      9 C8          -4.6460    -2.6210     0.0950 ca         1 5EB      -0.108500
     10 C20         -3.2060     1.4280     0.7780 c          1 5EB       0.606100
     11 C22         -4.2760     2.0870    -0.0970 c3         1 5EB      -0.154400
     12 C23         -5.4650     1.1290    -0.3340 c3         1 5EB      -0.042400
     13 C27         -6.5520     1.7440    -1.2070 cx         1 5EB      -0.124700
     14 C21         -7.4870     0.8720    -2.0110 cx         1 5EB      -0.132900
     15 C24         -6.4490     1.7180    -2.7130 cx         1 5EB      -0.132900
     16 C9          -3.3810    -2.1060    -0.2390 ca         1 5EB      -0.102500
     17 C17          0.4210     0.8300     0.2150 c          1 5EB       0.592100
     18 O4           0.5290     1.6070    -0.7270 o          1 5EB      -0.587100
     19 N            1.5180     0.3740     0.9150 ns         1 5EB      -0.497900
     20 C10          2.9040     0.6780     0.5740 c3         1 5EB       0.137900
     21 C14          3.7660    -0.4570     1.0970 c2         1 5EB      -0.177200
     22 C15          3.8910    -1.7100     0.5870 ce         1 5EB      -0.228200
     23 C16          3.2050    -2.2630    -0.6200 c          1 5EB       0.605300
     24 O2           3.5660    -3.5690    -0.8210 os         1 5EB      -0.445100
     25 C18          2.9910    -4.2630    -1.9410 c3         1 5EB       0.168600
     26 C19          3.5520    -5.6940    -1.9350 c3         1 5EB      -0.096100
     27 O3           2.4260    -1.6490    -1.3360 o          1 5EB      -0.476000
     28 C11          3.3200     2.0650     1.1290 c3         1 5EB      -0.084400
     29 C12          4.7450     2.5440     0.7210 c5         1 5EB      -0.151700
     30 C26          5.1130     3.9530     1.2650 c5         1 5EB      -0.092400
     31 C25          4.5360     4.8820     0.1600 c5         1 5EB       0.100000
     32 C13          4.8570     2.7230    -0.7980 c          1 5EB       0.565000
     33 O1           5.1690     1.9090    -1.6510 o          1 5EB      -0.553000
     34 H1          -0.9640     0.4230     1.8000 h1         1 5EB       0.087700
     35 H2          -0.8680    -1.4060    -0.6530 hc         1 5EB       0.064700
     36 H3          -0.2940    -1.7850     0.9550 hc         1 5EB       0.064700
     37 H4          -2.0660    -1.8300     2.9070 ha         1 5EB       0.110500
     38 H5          -4.3010    -2.7460     3.4930 ha         1 5EB       0.113000
     39 H6          -5.9580    -3.2490     1.6980 ha         1 5EB       0.113000
     40 H7          -2.0290     1.2410    -0.8820 hn         1 5EB       0.325500
     41 H8          -5.3680    -2.8380    -0.6890 ha         1 5EB       0.113000
     42 H9          -4.6460     2.9840     0.4130 hc         1 5EB       0.060700
     43 H10         -3.8510     2.3580    -1.0710 hc         1 5EB       0.060700
     44 H11         -5.0920     0.2060    -0.7960 hc         1 5EB       0.057700
     45 H12         -5.8950     0.8390     0.6330 hc         1 5EB       0.057700
     46 H13         -6.9860     2.6390    -0.7630 hc         1 5EB       0.076700
     47 H14         -7.3320    -0.2040    -1.9880 hc         1 5EB       0.069700
     48 H15         -8.5270     1.1800    -2.0860 hc         1 5EB       0.069700
     49 H16         -6.7920     2.5940    -3.2590 hc         1 5EB       0.069700
     50 H17         -5.5980     1.2080    -3.1600 hc         1 5EB       0.069700
     51 H18         -3.1350    -1.9250    -1.2830 ha         1 5EB       0.110500
     52 H19          1.3450    -0.2650     1.6800 hn         1 5EB       0.309500
     53 H20          2.9880     0.7110    -0.5220 h1         1 5EB       0.124700
     54 H21          4.3280    -0.2000     1.9970 ha         1 5EB       0.166000
     55 H23          4.5490    -2.4220     1.0820 ha         1 5EB       0.195000
     56 H25          1.8960    -4.2990    -1.8600 h1         1 5EB       0.052200
     57 H26          3.2540    -3.7690    -2.8860 h1         1 5EB       0.052200
     58 H27          3.1410    -6.2660    -2.7750 hc         1 5EB       0.043700
     59 H28          4.6440    -5.6800    -2.0300 hc         1 5EB       0.043700
     60 H29          3.2870    -6.2090    -1.0050 hc         1 5EB       0.043700
     61 H30          2.5820     2.8050     0.7960 hc         1 5EB       0.051700
     62 H31          3.2430     2.0390     2.2230 hc         1 5EB       0.051700
     63 H32          5.4520     1.7700     1.0380 hc         1 5EB       0.082700
     64 H33          4.7000     4.1630     2.2580 hc         1 5EB       0.058200
     65 H34          6.2010     4.0690     1.3330 hc         1 5EB       0.058200
     66 H35          5.0550     5.8500     0.1250 h1         1 5EB       0.045700
     67 H22          3.4640     5.0690     0.3090 h1         1 5EB       0.045700
     68 H36          4.8990     4.4130    -1.9760 hn         1 5EB       0.329500
     69 O21         -3.3390     1.2940     1.9860 o          1 5EB      -0.612100
@<TRIPOS>BOND
     1     1     2 1   
     2     1     8 1   
     3     1    17 1   
     4     1    34 1   
     5     2     3 1   
     6     2    35 1   
     7     2    36 1   
     8     3     4 ar  
     9     3    16 ar  
    10     4     5 ar  
    11     4    37 1   
    12     5     6 ar  
    13     5    38 1   
    14     6     9 ar  
    15     6    39 1   
    16     7    31 1   
    17     7    32 1   
    18     7    68 1   
    19     8    10 1   
    20     8    40 1   
    21     9    16 ar  
    22     9    41 1   
    23    10    11 1   
    24    10    69 2   
    25    11    12 1   
    26    11    42 1   
    27    11    43 1   
    28    12    13 1   
    29    12    44 1   
    30    12    45 1   
    31    13    14 1   
    32    13    15 1   
    33    13    46 1   
    34    14    15 1   
    35    14    47 1   
    36    14    48 1   
    37    15    49 1   
    38    15    50 1   
    39    16    51 1   
    40    17    18 2   
    41    17    19 1   
    42    19    20 1   
    43    19    52 1   
    44    20    21 1   
    45    20    28 1   
    46    20    53 1   
    47    21    22 2   
    48    21    54 1   
    49    22    23 1   
    50    22    55 1   
    51    23    24 1   
    52    23    27 2   
    53    24    25 1   
    54    25    26 1   
    55    25    56 1   
    56    25    57 1   
    57    26    58 1   
    58    26    59 1   
    59    26    60 1   
    60    28    29 1   
    61    28    61 1   
    62    28    62 1   
    63    29    30 1   
    64    29    32 1   
    65    29    63 1   
    66    30    31 1   
    67    30    64 1   
    68    30    65 1   
    69    31    66 1   
    70    31    67 1   
    71    32    33 2   
@<TRIPOS>SUBSTRUCTURE
     1 5EB         1 TEMP              0 ****  ****    0 ROOT
