@<TRIPOS>MOLECULE
5EB
   69    71     1     0     0
SMALL
bcc


@<TRIPOS>ATOM
      1 C2          -1.4340    -0.2010     0.4200 c3         1 5EB       0.028700
      2 C3          -1.9160    -1.6520     0.2200 c3         1 5EB      -0.047100
      3 C4          -3.3610    -1.7940     0.6070 ca         1 5EB      -0.083300
      4 C5          -3.7330    -1.8390     1.9490 ca         1 5EB      -0.120500
      5 C6          -5.0700    -1.9030     2.3140 ca         1 5EB      -0.126500
      6 C7          -6.0590    -1.9220     1.3380 ca         1 5EB      -0.128000
      7 N1           4.8890     2.5880    -1.2790 ns         1 5EB      -0.580900
      8 N2          -2.3160     0.7220    -0.2410 ns         1 5EB      -0.555900
      9 C8          -5.7000    -1.8830    -0.0020 ca         1 5EB      -0.126500
     10 C20         -3.0770     1.6200     0.4160 c          1 5EB       0.673100
     11 C22         -4.1380     2.2980    -0.4180 c3         1 5EB      -0.154400
     12 C23         -5.5220     2.0860     0.1980 c3         1 5EB      -0.042400
     13 C27         -6.6130     2.6820    -0.6510 cx         1 5EB      -0.124700
     14 C21         -7.9940     2.1050    -0.6000 cx         1 5EB      -0.132900
     15 C24         -7.1420     1.9080    -1.8200 cx         1 5EB      -0.132900
     16 C9          -4.3590    -1.8190    -0.3620 ca         1 5EB      -0.120500
     17 C17         -0.0130    -0.0510    -0.1130 c          1 5EB       0.659100
     18 O4           0.2010     0.2020    -1.2880 o          1 5EB      -0.587100
     19 N            0.9480    -0.2700     0.7970 ns         1 5EB      -0.564900
     20 C10          2.3670    -0.1610     0.5060 c3         1 5EB       0.137900
     21 C14          3.1080    -1.1920     1.3060 c2         1 5EB      -0.127200
     22 C15          3.8790    -2.1760     0.8550 ce         1 5EB      -0.178200
     23 C16          4.0890    -2.5060    -0.5740 c          1 5EB       0.654300
     24 O2           5.3310    -2.9210    -0.7750 os         1 5EB      -0.421900
     25 C18          5.7190    -3.2630    -2.1140 c3         1 5EB       0.145400
     26 C19          7.1740    -3.6620    -2.0830 c3         1 5EB      -0.096100
     27 O3           3.2470    -2.4550    -1.4370 o          1 5EB      -0.525000
     28 C11          2.8590     1.2470     0.8690 c3         1 5EB      -0.084400
     29 C12          4.3620     1.4900     0.6880 c5         1 5EB      -0.151700
     30 C26          4.7390     2.9400     1.0050 c5         1 5EB      -0.092400
     31 C25          4.6130     3.6560    -0.3430 c5         1 5EB       0.100000
     32 C13          4.7640     1.3490    -0.7740 c          1 5EB       0.707500
     33 O1           4.9220     0.3050    -1.3880 o          1 5EB      -0.628500
     34 H1          -1.4600     0.0330     1.4850 h1         1 5EB       0.087700
     35 H2          -1.7760    -1.9390    -0.8260 hc         1 5EB       0.064700
     36 H3          -1.2860    -2.3140     0.8180 hc         1 5EB       0.064700
     37 H4          -2.9690    -1.8230     2.7180 ha         1 5EB       0.128500
     38 H5          -5.3400    -1.9390     3.3610 ha         1 5EB       0.131000
     39 H6          -7.1030    -1.9710     1.6200 ha         1 5EB       0.131000
     40 H7          -2.5060     0.5590    -1.2170 hn         1 5EB       0.325500
     41 H8          -6.4630    -1.8960    -0.7700 ha         1 5EB       0.131000
     42 H9          -3.9140     3.3680    -0.4660 hc         1 5EB       0.060700
     43 H10         -4.1340     1.9290    -1.4460 hc         1 5EB       0.060700
     44 H11         -5.7030     1.0140     0.3220 hc         1 5EB       0.057700
     45 H12         -5.5450     2.5250     1.1980 hc         1 5EB       0.057700
     46 H13         -6.5510     3.7580    -0.7820 hc         1 5EB       0.076700
     47 H14         -8.1600     1.2510     0.0470 hc         1 5EB       0.069700
     48 H15         -8.8380     2.7800    -0.6670 hc         1 5EB       0.069700
     49 H16         -7.4070     2.4430    -2.7230 hc         1 5EB       0.069700
     50 H17         -6.7310     0.9200    -1.9960 hc         1 5EB       0.069700
     51 H18         -4.0890    -1.7880    -1.4110 ha         1 5EB       0.128500
     52 H19          0.6760    -0.3620     1.7640 hn         1 5EB       0.309500
     53 H20          2.4910    -0.3380    -0.5580 h1         1 5EB       0.124700
     54 H21          3.0490    -1.0660     2.3850 ha         1 5EB       0.116000
     55 H23          4.4260    -2.7810     1.5690 ha         1 5EB       0.145000
     56 H25          5.0970    -4.0820    -2.4800 h1         1 5EB       0.052200
     57 H26          5.5650    -2.4030    -2.7690 h1         1 5EB       0.052200
     58 H27          7.4920    -3.9320    -3.0900 hc         1 5EB       0.043700
     59 H28          7.8070    -2.8430    -1.7420 hc         1 5EB       0.043700
     60 H29          7.3420    -4.5240    -1.4380 hc         1 5EB       0.043700
     61 H30          2.2890     1.9670     0.2730 hc         1 5EB       0.051700
     62 H31          2.6110     1.4450     1.9160 hc         1 5EB       0.051700
     63 H32          4.9250     0.7780     1.2940 hc         1 5EB       0.082700
     64 H33          4.1070     3.3880     1.7720 hc         1 5EB       0.058200
     65 H34          5.7720     2.9900     1.3520 hc         1 5EB       0.058200
     66 H35          5.3300     4.4690    -0.4520 h1         1 5EB       0.045700
     67 H22          3.6120     4.0700    -0.4960 h1         1 5EB       0.045700
     68 H36          5.0360     2.7510    -2.2630 hn         1 5EB       0.329500
     69 O21         -2.9440     1.8640     1.6060 o          1 5EB      -0.612100
@<TRIPOS>BOND
     1     1     2 1   
     2     1     8 1   
     3     1    17 1   
     4     1    34 1   
     5     2     3 1   
     6     2    35 1   
     7     2    36 1   
     8     3     4 ar  
     9     3    16 ar  
    10     4     5 ar  
    11     4    37 1   
    12     5     6 ar  
    13     5    38 1   
    14     6     9 ar  
    15     6    39 1   
    16     7    31 1   
    17     7    32 1   
    18     7    68 1   
    19     8    10 1   
    20     8    40 1   
    21     9    16 ar  
    22     9    41 1   
    23    10    11 1   
    24    10    69 2   
    25    11    12 1   
    26    11    42 1   
    27    11    43 1   
    28    12    13 1   
    29    12    44 1   
    30    12    45 1   
    31    13    14 1   
    32    13    15 1   
    33    13    46 1   
    34    14    15 1   
    35    14    47 1   
    36    14    48 1   
    37    15    49 1   
    38    15    50 1   
    39    16    51 1   
    40    17    18 2   
    41    17    19 1   
    42    19    20 1   
    43    19    52 1   
    44    20    21 1   
    45    20    28 1   
    46    20    53 1   
    47    21    22 2   
    48    21    54 1   
    49    22    23 1   
    50    22    55 1   
    51    23    24 1   
    52    23    27 2   
    53    24    25 1   
    54    25    26 1   
    55    25    56 1   
    56    25    57 1   
    57    26    58 1   
    58    26    59 1   
    59    26    60 1   
    60    28    29 1   
    61    28    61 1   
    62    28    62 1   
    63    29    30 1   
    64    29    32 1   
    65    29    63 1   
    66    30    31 1   
    67    30    64 1   
    68    30    65 1   
    69    31    66 1   
    70    31    67 1   
    71    32    33 2   
@<TRIPOS>SUBSTRUCTURE
     1 5EB         1 TEMP              0 ****  ****    0 ROOT
