@<TRIPOS>MOLECULE
5EC
   68    69     1     0     0
SMALL
abcg2


@<TRIPOS>ATOM
      1 C2          -1.2240     0.1150     0.1530 c3         1 5EC       0.039700
      2 C3          -1.2890    -1.4120    -0.0300 c3         1 5EC      -0.043100
      3 C4          -2.6730    -1.9430     0.2260 ca         1 5EC      -0.081300
      4 C5          -3.1820    -2.0020     1.5220 ca         1 5EC      -0.107000
      5 C6          -4.4740    -2.4490     1.7560 ca         1 5EC      -0.107500
      6 C7          -5.2790    -2.8470     0.6950 ca         1 5EC      -0.109000
      7 N1           4.7590     3.7760    -0.9460 ns         1 5EC      -0.513900
      8 C8          -4.7790    -2.7970    -0.5990 ca         1 5EC      -0.107500
      9 C20         -3.7570     2.4570    -1.3780 c3         1 5EC      -0.153400
     10 C22         -5.1360     2.4730    -0.7050 c3         1 5EC      -0.054700
     11 C23         -6.1670     3.0670    -1.6590 c3         1 5EC      -0.090600
     12 C24         -5.5610     1.0810    -0.2470 c3         1 5EC      -0.090600
     13 O           -2.2850     2.6640     0.5060 o          1 5EC      -0.615100
     14 N5          -2.2090     0.7480    -0.6720 ns         1 5EC      -0.483900
     15 C9          -3.4850    -2.3480    -0.8280 ca         1 5EC      -0.107000
     16 C17          0.1830     0.6150    -0.1910 c          1 5EC       0.596100
     17 O4           0.4410     1.1210    -1.2690 o          1 5EC      -0.575100
     18 N            1.0880     0.4090     0.7770 ns         1 5EC      -0.502900
     19 C10          2.5130     0.6050     0.5820 c3         1 5EC       0.137900
     20 C11          2.9490     1.9830     1.0820 c3         1 5EC      -0.079400
     21 C12          4.4230     2.3160     0.8180 c5         1 5EC      -0.153700
     22 C13          4.6810     2.4630    -0.6760 c          1 5EC       0.563000
     23 O1           4.7730     1.5580    -1.4900 o          1 5EC      -0.547000
     24 C25          4.5630     4.6440     0.1960 c5         1 5EC       0.100000
     25 C26          4.8120     3.6910     1.3690 c5         1 5EC      -0.091400
     26 C14          3.2600    -0.4940     1.2960 c2         1 5EC      -0.156200
     27 C15          3.3180    -1.7880     0.9790 ce         1 5EC      -0.256200
     28 C16          2.6690    -2.4000    -0.1970 c          1 5EC       0.590300
     29 O3           2.0620    -1.8100    -1.0580 o          1 5EC      -0.477000
     30 O2           2.8400    -3.7170    -0.1920 os         1 5EC      -0.451100
     31 C18          2.2630    -4.4720    -1.2680 c3         1 5EC       0.166600
     32 C19          2.5890    -5.9270    -1.0370 c3         1 5EC      -0.097100
     33 H1          -1.4400     0.3490     1.1990 h1         1 5EC       0.075700
     34 H2          -0.9660    -1.6690    -1.0420 hc         1 5EC       0.065200
     35 H3          -0.5720    -1.8740     0.6500 hc         1 5EC       0.065200
     36 H4          -2.5630    -1.6970     2.3580 ha         1 5EC       0.110500
     37 H5          -4.8520    -2.4930     2.7690 ha         1 5EC       0.113500
     38 H6          -6.2870    -3.1970     0.8790 ha         1 5EC       0.114000
     39 H7           4.8150     4.1240    -1.8910 hn         1 5EC       0.329500
     40 H8          -5.3960    -3.1080    -1.4330 ha         1 5EC       0.113500
     41 H9          -3.7990     1.8270    -2.2720 hc         1 5EC       0.060700
     42 H10         -3.5000     3.4670    -1.7080 hc         1 5EC       0.060700
     43 H11         -5.0740     3.1240     0.1740 hc         1 5EC       0.063700
     44 H12         -6.2840     2.4440    -2.5480 hc         1 5EC       0.034533
     45 H13         -7.1440     3.1440    -1.1780 hc         1 5EC       0.034533
     46 H14         -5.8780     4.0670    -1.9880 hc         1 5EC       0.034533
     47 H15         -6.5700     1.1040     0.1670 hc         1 5EC       0.034533
     48 H16         -5.5610     0.3750    -1.0810 hc         1 5EC       0.034533
     49 H17         -4.9030     0.6700     0.5200 hc         1 5EC       0.034533
     50 H18         -2.5350     0.2610    -1.4900 hn         1 5EC       0.323500
     51 H19         -3.1030    -2.3140    -1.8420 ha         1 5EC       0.110500
     52 H20          0.7800     0.0280     1.6580 hn         1 5EC       0.308500
     53 H21          2.7010     0.5310    -0.4880 h1         1 5EC       0.127700
     54 H22          2.3080     2.7390     0.6190 hc         1 5EC       0.055200
     55 H23          2.7720     2.0440     2.1600 hc         1 5EC       0.055200
     56 H24          5.0590     1.5250     1.2220 hc         1 5EC       0.077700
     57 H25          5.2630     5.4780     0.1800 h1         1 5EC       0.046200
     58 H26          3.5500     5.0560     0.2110 h1         1 5EC       0.046200
     59 H27          4.2480     3.9740     2.2570 hc         1 5EC       0.056200
     60 H28          5.8710     3.7020     1.6310 hc         1 5EC       0.056200
     61 H29          3.7850    -0.1980     2.2000 ha         1 5EC       0.173000
     62 H31          3.8760    -2.4550     1.6240 ha         1 5EC       0.197000
     63 H33          1.1820    -4.3120    -1.2910 h1         1 5EC       0.048200
     64 H34          2.6710    -4.1270    -2.2200 h1         1 5EC       0.048200
     65 H35          3.6650    -6.1000    -1.0270 hc         1 5EC       0.046367
     66 H36          2.1680    -6.2880    -0.0990 hc         1 5EC       0.046367
     67 H37          2.1640    -6.5220    -1.8450 hc         1 5EC       0.046367
     68 C           -2.6760     1.9850    -0.4350 c          1 5EC       0.608100
@<TRIPOS>BOND
     1     1     2 1   
     2     1    14 1   
     3     1    16 1   
     4     1    33 1   
     5     2     3 1   
     6     2    34 1   
     7     2    35 1   
     8     3     4 ar  
     9     3    15 ar  
    10     4     5 ar  
    11     4    36 1   
    12     5     6 ar  
    13     5    37 1   
    14     6     8 ar  
    15     6    38 1   
    16     7    22 1   
    17     7    24 1   
    18     7    39 1   
    19     8    15 ar  
    20     8    40 1   
    21     9    10 1   
    22     9    41 1   
    23     9    42 1   
    24     9    68 1   
    25    10    11 1   
    26    10    12 1   
    27    10    43 1   
    28    11    44 1   
    29    11    45 1   
    30    11    46 1   
    31    12    47 1   
    32    12    48 1   
    33    12    49 1   
    34    13    68 2   
    35    14    50 1   
    36    14    68 1   
    37    15    51 1   
    38    16    17 2   
    39    16    18 1   
    40    18    19 1   
    41    18    52 1   
    42    19    20 1   
    43    19    26 1   
    44    19    53 1   
    45    20    21 1   
    46    20    54 1   
    47    20    55 1   
    48    21    22 1   
    49    21    25 1   
    50    21    56 1   
    51    22    23 2   
    52    24    25 1   
    53    24    57 1   
    54    24    58 1   
    55    25    59 1   
    56    25    60 1   
    57    26    27 2   
    58    26    61 1   
    59    27    28 1   
    60    27    62 1   
    61    28    29 2   
    62    28    30 1   
    63    30    31 1   
    64    31    32 1   
    65    31    63 1   
    66    31    64 1   
    67    32    65 1   
    68    32    66 1   
    69    32    67 1   
@<TRIPOS>SUBSTRUCTURE
     1 5EC         1 TEMP              0 ****  ****    0 ROOT
