@<TRIPOS>MOLECULE
5EC
   68    69     1     0     0
SMALL
No Charge or Current Charge


@<TRIPOS>ATOM
      1 C2          -1.2150     0.3920     0.3870 c3         1 5EC       0.039700
      2 C3          -1.4280    -1.1340     0.1910 c3         1 5EC      -0.043100
      3 C4          -2.8480    -1.6210     0.4760 ca         1 5EC      -0.081300
      4 C5          -3.4750    -1.3320     1.7050 ca         1 5EC      -0.107000
      5 C6          -4.7780    -1.7920     1.9640 ca         1 5EC      -0.107500
      6 C7          -5.4610    -2.5520     0.9990 ca         1 5EC      -0.109000
      7 N1           4.9160     3.6010    -1.0880 ns         1 5EC      -0.513900
      8 C8          -4.8390    -2.8530    -0.2230 ca         1 5EC      -0.107500
      9 C20         -4.0920     2.6890    -0.8470 c3         1 5EC      -0.153400
     10 C22         -5.5500     2.1560    -0.8870 c3         1 5EC      -0.054700
     11 C23         -6.4360     3.0240    -1.8090 c3         1 5EC      -0.090600
     12 C24         -5.6210     0.6660    -1.2900 c3         1 5EC      -0.090600
     13 O           -3.3530     2.0770     1.3760 o          1 5EC      -0.615100
     14 N5          -2.2110     1.1770    -0.3820 ns         1 5EC      -0.483900
     15 C9          -3.5370    -2.3900    -0.4830 ca         1 5EC      -0.107000
     16 C17          0.2310     0.8040    -0.0100 c          1 5EC       0.596100
     17 O4           0.4910     1.4830    -0.9960 o          1 5EC      -0.575100
     18 N            1.2180     0.3400     0.8360 ns         1 5EC      -0.502900
     19 C10          2.6500     0.5100     0.6100 c3         1 5EC       0.137900
     20 C11          3.1230     1.9090     1.0830 c3         1 5EC      -0.079400
     21 C12          4.6130     2.2470     0.7750 c5         1 5EC      -0.153700
     22 C13          4.8720     2.2800    -0.7360 c          1 5EC       0.563000
     23 O1           5.1930     1.3720    -1.4850 o          1 5EC      -0.547000
     24 C25          4.6400     4.5340     0.0030 c5         1 5EC       0.100000
     25 C26          5.0410     3.6700     1.2320 c5         1 5EC      -0.091400
     26 C14          3.3660    -0.6310     1.3100 c2         1 5EC      -0.156200
     27 C15          3.4260    -1.9340     0.9280 ce         1 5EC      -0.256200
     28 C16          2.7990    -2.5460    -0.2810 c          1 5EC       0.590300
     29 O3           2.1390    -1.9450    -1.1170 o          1 5EC      -0.477000
     30 O2           3.0580    -3.8890    -0.3270 os         1 5EC      -0.451100
     31 C18          2.5180    -4.6430    -1.4250 c3         1 5EC       0.166600
     32 C19          2.9470    -6.1070    -1.2350 c3         1 5EC      -0.097100
     33 H1          -1.3210     0.6250     1.4540 h1         1 5EC       0.075700
     34 H2          -1.1430    -1.3900    -0.8370 hc         1 5EC       0.065200
     35 H3          -0.7290    -1.6790     0.8370 hc         1 5EC       0.065200
     36 H4          -2.9560    -0.7500     2.4630 ha         1 5EC       0.110500
     37 H5          -5.2580    -1.5610     2.9120 ha         1 5EC       0.113500
     38 H6          -6.4690    -2.9080     1.2000 ha         1 5EC       0.114000
     39 H7           5.1510     3.8490    -2.0420 hn         1 5EC       0.329500
     40 H8          -5.3650    -3.4430    -0.9710 ha         1 5EC       0.113500
     41 H9          -3.6590     2.6060    -1.8510 hc         1 5EC       0.060700
     42 H10         -4.1200     3.7460    -0.5550 hc         1 5EC       0.060700
     43 H11         -5.9630     2.2400     0.1270 hc         1 5EC       0.063700
     44 H12         -6.0800     2.9840    -2.8450 hc         1 5EC       0.034533
     45 H13         -7.4760     2.6750    -1.7890 hc         1 5EC       0.034533
     46 H14         -6.4270     4.0720    -1.4830 hc         1 5EC       0.034533
     47 H15         -6.6610     0.3190    -1.3130 hc         1 5EC       0.034533
     48 H16         -5.1820     0.5050    -2.2810 hc         1 5EC       0.034533
     49 H17         -5.0820     0.0450    -0.5680 hc         1 5EC       0.034533
     50 H18         -2.1470     1.1720    -1.3930 hn         1 5EC       0.323500
     51 H19         -3.0660    -2.6310    -1.4340 ha         1 5EC       0.110500
     52 H20          0.9230    -0.2140     1.6290 hn         1 5EC       0.308500
     53 H21          2.8370     0.4350    -0.4710 h1         1 5EC       0.127700
     54 H22          2.4780     2.6660     0.6180 hc         1 5EC       0.055200
     55 H23          2.9460     1.9900     2.1620 hc         1 5EC       0.055200
     56 H24          5.2240     1.4570     1.2230 hc         1 5EC       0.077700
     57 H25          5.2350     5.4550    -0.0620 h1         1 5EC       0.046200
     58 H26          3.5770     4.8100     0.0330 h1         1 5EC       0.046200
     59 H27          4.5590     3.9970     2.1600 hc         1 5EC       0.056200
     60 H28          6.1240     3.7140     1.3940 hc         1 5EC       0.056200
     61 H29          3.8700    -0.3320     2.2310 ha         1 5EC       0.173000
     62 H31          3.9770    -2.6430     1.5440 ha         1 5EC       0.197000
     63 H33          1.4210    -4.5820    -1.4400 h1         1 5EC       0.048200
     64 H34          2.9020    -4.2700    -2.3830 h1         1 5EC       0.048200
     65 H35          4.0400    -6.1920    -1.2320 hc         1 5EC       0.046367
     66 H36          2.5600    -6.5040    -0.2890 hc         1 5EC       0.046367
     67 H37          2.5560    -6.7250    -2.0520 hc         1 5EC       0.046367
     68 C           -3.2110     1.9480     0.1680 c          1 5EC       0.608100
@<TRIPOS>BOND
     1     1     2 1   
     2     1    14 1   
     3     1    16 1   
     4     1    33 1   
     5     2     3 1   
     6     2    34 1   
     7     2    35 1   
     8     3     4 ar  
     9     3    15 ar  
    10     4     5 ar  
    11     4    36 1   
    12     5     6 ar  
    13     5    37 1   
    14     6     8 ar  
    15     6    38 1   
    16     7    22 1   
    17     7    24 1   
    18     7    39 1   
    19     8    15 ar  
    20     8    40 1   
    21     9    10 1   
    22     9    41 1   
    23     9    42 1   
    24     9    68 1   
    25    10    11 1   
    26    10    12 1   
    27    10    43 1   
    28    11    44 1   
    29    11    45 1   
    30    11    46 1   
    31    12    47 1   
    32    12    48 1   
    33    12    49 1   
    34    13    68 2   
    35    14    50 1   
    36    14    68 1   
    37    15    51 1   
    38    16    17 2   
    39    16    18 1   
    40    18    19 1   
    41    18    52 1   
    42    19    20 1   
    43    19    26 1   
    44    19    53 1   
    45    20    21 1   
    46    20    54 1   
    47    20    55 1   
    48    21    22 1   
    49    21    25 1   
    50    21    56 1   
    51    22    23 2   
    52    24    25 1   
    53    24    57 1   
    54    24    58 1   
    55    25    59 1   
    56    25    60 1   
    57    26    27 2   
    58    26    61 1   
    59    27    28 1   
    60    27    62 1   
    61    28    29 2   
    62    28    30 1   
    63    30    31 1   
    64    31    32 1   
    65    31    63 1   
    66    31    64 1   
    67    32    65 1   
    68    32    66 1   
    69    32    67 1   
@<TRIPOS>SUBSTRUCTURE
     1 5EC         1 TEMP              0 ****  ****    0 ROOT
