@<TRIPOS>MOLECULE
5EE
   35    37     1     0     0
SMALL
No Charge or Current Charge


@<TRIPOS>ATOM
      1 S19          4.6340    -0.2560     0.1380 sy         1 5EE       1.192600
      2 O20          5.2020     0.5620     1.2110 o          1 5EE      -0.509500
      3 O21          5.4540    -1.0300    -0.7980 o          1 5EE      -0.509500
      4 N22          3.5820    -1.3390     0.8710 n7         1 5EE      -0.592300
      5 C24          3.5300     0.7720    -0.7970 cc         1 5EE      -0.504500
      6 S3           2.9590     0.2800    -2.3780 ss         1 5EE       0.334000
      7 C27          1.9790     1.7380    -2.5000 cc         1 5EE      -0.210000
      8 C29          2.1300     2.5310    -1.3890 cd         1 5EE      -0.150000
      9 C30          3.0130     1.9860    -0.4190 cd         1 5EE       0.031000
     10 C1          -0.5690     1.2480     1.1840 c3         1 5EE      -0.006100
     11 C2          -2.0780     1.2710     0.9750 ca         1 5EE      -0.094300
     12 C4          -2.9470     1.1200     2.0720 ca         1 5EE      -0.095000
     13 C5          -4.3400     1.1320     1.8800 ca         1 5EE      -0.095000
     14 C6          -4.0080     1.4460    -0.5120 ca         1 5EE       0.118000
     15 C8          -4.8740     1.2940     0.5910 ca         1 5EE       0.125000
     16 Cl1         -6.6260     1.3030     0.3830 cl         1 5EE      -0.163000
     17 N1           2.1210    -1.1440     0.8890 n          1 5EE      -0.175800
     18 C9           1.3090    -1.8730     0.0430 cs         1 5EE       0.308000
     19 C14         -0.0140    -0.1650     1.4890 c5         1 5EE      -0.057700
     20 C7           1.5090    -0.1590     1.7020 c          1 5EE       0.552000
     21 C3          -2.6160     1.4350    -0.3180 ca         1 5EE      -0.080000
     22 S1          -0.3740    -1.3390     0.1090 ss         1 5EE      -0.130600
     23 S2           1.8120    -3.0660    -1.0180 s          1 5EE      -0.263400
     24 O1           2.1300     0.5640     2.4700 o          1 5EE      -0.472000
     25 Cl2         -4.6420     1.6500    -2.1460 cl         1 5EE      -0.160000
     26 H22          3.9620    -1.4620     1.8110 hn         1 5EE       0.499000
     27 H27          1.3750     1.9000    -3.3830 h4         1 5EE       0.154000
     28 H29          1.6220     3.4820    -1.2610 ha         1 5EE       0.143000
     29 H30          3.2410     2.4770     0.5240 ha         1 5EE       0.150000
     30 H11         -0.0620     1.6550     0.3000 hc         1 5EE       0.071200
     31 H12         -0.3110     1.9280     2.0060 hc         1 5EE       0.071200
     32 H4          -2.5450     0.9930     3.0760 ha         1 5EE       0.122000
     33 H5          -5.0070     1.0140     2.7310 ha         1 5EE       0.136000
     34 H14         -0.4660    -0.5520     2.4100 h1         1 5EE       0.120700
     35 H3          -1.9580     1.5490    -1.1760 ha         1 5EE       0.140000
@<TRIPOS>BOND
     1     1     2 2   
     2     1     3 2   
     3     1     4 1   
     4     1     5 1   
     5     4    17 1   
     6     4    26 1   
     7     5     6 1   
     8     5     9 2   
     9     6     7 1   
    10     7     8 2   
    11     7    27 1   
    12     8     9 1   
    13     8    28 1   
    14     9    29 1   
    15    10    11 1   
    16    10    19 1   
    17    10    30 1   
    18    10    31 1   
    19    11    12 ar  
    20    11    21 ar  
    21    12    13 ar  
    22    12    32 1   
    23    13    15 ar  
    24    13    33 1   
    25    14    15 ar  
    26    14    21 ar  
    27    14    25 1   
    28    15    16 1   
    29    17    18 1   
    30    17    20 1   
    31    18    22 1   
    32    18    23 2   
    33    19    20 1   
    34    19    22 1   
    35    19    34 1   
    36    20    24 2   
    37    21    35 1   
@<TRIPOS>SUBSTRUCTURE
     1 5EE         1 TEMP              0 ****  ****    0 ROOT
