@<TRIPOS>MOLECULE
5EE
   35    37     1     0     0
SMALL
bcc


@<TRIPOS>ATOM
      1 S19          4.0560    -0.4720    -0.4330 sy         1 5EE       1.334200
      2 O20          5.4540    -0.6800    -0.1300 o          1 5EE      -0.580300
      3 O21          3.3910    -1.0990    -1.5540 o          1 5EE      -0.580300
      4 N22          3.2670    -1.0470     0.9430 n7         1 5EE      -0.537100
      5 C24          3.7340     1.2270    -0.5580 cc         1 5EE      -0.359600
      6 S3           2.4190     1.7760    -1.5150 ss         1 5EE       0.044200
      7 C27          2.7030     3.3830    -1.0210 cc         1 5EE      -0.083100
      8 C29          3.7640     3.4880    -0.1690 cd         1 5EE      -0.168000
      9 C30          4.3630     2.2380     0.1090 cd         1 5EE       0.013000
     10 C1          -0.8790     1.0830     0.4920 c3         1 5EE      -0.006100
     11 C2          -2.3670     0.9030     0.4110 ca         1 5EE      -0.094300
     12 C4          -3.1920     1.3220     1.4520 ca         1 5EE      -0.113000
     13 C5          -4.5590     1.1190     1.3960 ca         1 5EE      -0.113000
     14 C6          -4.3090     0.0680    -0.7480 ca         1 5EE       0.026400
     15 C8          -5.1230     0.4900     0.2960 ca         1 5EE       0.033400
     16 CL1         -6.8260     0.2430     0.2380 cl         1 5EE      -0.071400
     17 N1           1.9080    -0.9640     0.9460 n          1 5EE      -0.309800
     18 C9           1.1430    -2.0620     0.6000 cs         1 5EE       0.375000
     19 C14         -0.2420    -0.0000     1.3690 c5         1 5EE      -0.105600
     20 C7           1.2540     0.1600     1.4500 c          1 5EE       0.694500
     21 C3          -2.9380     0.2750    -0.6880 ca         1 5EE      -0.098000
     22 S1          -0.5400    -1.6760     0.7240 ss         1 5EE      -0.082700
     23 S2           1.6980    -3.5140     0.1430 s          1 5EE      -0.263400
     24 O1           1.8330     1.1110     1.8900 o          1 5EE      -0.547500
     25 CL2         -4.9840    -0.7120    -2.1270 cl         1 5EE      -0.068400
     26 H22          3.6980    -0.7900     1.8270 hn         1 5EE       0.443800
     27 H27          2.0800     4.1780    -1.4010 h4         1 5EE       0.172000
     28 H29          4.1080     4.4260     0.2410 ha         1 5EE       0.161000
     29 H30          5.2070     2.0980     0.7680 ha         1 5EE       0.168000
     30 H11         -0.4390     1.0540    -0.5060 hc         1 5EE       0.071200
     31 H12         -0.6380     2.0540     0.9290 hc         1 5EE       0.071200
     32 H4          -2.7680     1.8160     2.3170 ha         1 5EE       0.140000
     33 H5          -5.1920     1.4530     2.2060 ha         1 5EE       0.154000
     34 H14         -0.6400     0.0540     2.3850 h1         1 5EE       0.120700
     35 H3          -2.3160    -0.0540    -1.5110 ha         1 5EE       0.158000
@<TRIPOS>BOND
     1     1     2 2   
     2     1     3 2   
     3     1     4 1   
     4     1     5 1   
     5     4    17 1   
     6     4    26 1   
     7     5     6 1   
     8     5     9 2   
     9     6     7 1   
    10     7     8 2   
    11     7    27 1   
    12     8     9 1   
    13     8    28 1   
    14     9    29 1   
    15    10    11 1   
    16    10    19 1   
    17    10    30 1   
    18    10    31 1   
    19    11    12 ar  
    20    11    21 ar  
    21    12    13 ar  
    22    12    32 1   
    23    13    15 ar  
    24    13    33 1   
    25    14    15 ar  
    26    14    21 ar  
    27    14    25 1   
    28    15    16 1   
    29    17    18 1   
    30    17    20 1   
    31    18    22 1   
    32    18    23 2   
    33    19    20 1   
    34    19    22 1   
    35    19    34 1   
    36    20    24 2   
    37    21    35 1   
@<TRIPOS>SUBSTRUCTURE
     1 5EE         1 TEMP              0 ****  ****    0 ROOT
