@<TRIPOS>MOLECULE
5EG
   44    46     1     0     0
SMALL
bcc


@<TRIPOS>ATOM
      1 C2           0.3990    -0.7020    -0.2550 c          1 5EG       0.645100
      2 C3           1.0590    -1.5510    -1.3300 c3         1 5EG      -0.032700
      3 O1           0.3410    -1.0400     0.9010 o          1 5EG      -0.512100
      4 C11          3.9370     1.2920    -0.4640 ca         1 5EG       0.134100
      5 C12          4.8860     1.6150    -1.4270 ca         1 5EG      -0.207000
      6 C13          5.2670     2.9390    -1.6130 ca         1 5EG      -0.087000
      7 C14          4.7140     3.9500    -0.8460 ca         1 5EG      -0.148000
      8 C15          3.7750     3.6350     0.1280 ca         1 5EG      -0.084000
      9 C16          3.3960     2.3180     0.3140 ca         1 5EG      -0.012600
     10 C20         -2.1230     1.0800     0.4910 c          1 5EG       0.795100
     11 C23         -4.1180    -0.2830    -0.0580 ca         1 5EG       0.090600
     12 C24         -5.0350     0.2850     0.8280 ca         1 5EG      -0.162500
     13 C25         -6.3190    -0.2310     0.9240 ca         1 5EG      -0.091000
     14 C26         -6.7010    -1.3070     0.1420 ca         1 5EG       0.000400
     15 C28         -5.8050    -1.8780    -0.7470 ca         1 5EG      -0.091000
     16 C29         -4.5240    -1.3660    -0.8410 ca         1 5EG      -0.162500
     17 N4           2.0240    -2.4410    -0.7490 na         1 5EG      -0.033400
     18 N5           1.6900    -3.6310    -0.2760 nc         1 5EG      -0.178800
     19 N6           2.7500    -4.1450     0.2070 nd         1 5EG      -0.031000
     20 N7           3.7870    -3.3160     0.0810 nd         1 5EG      -0.358000
     21 C8           3.3260    -2.2480    -0.5160 cc         1 5EG       0.386800
     22 C9           4.0840    -1.0340    -0.9040 c3         1 5EG       0.110100
     23 O10          3.4890     0.0460    -0.2130 os         1 5EG      -0.311900
     24 CL1          2.2560     1.9150     1.5510 cl         1 5EG      -0.082400
     25 N18         -0.1790     0.4240    -0.7500 ns         1 5EG      -0.461500
     26 N19         -0.8290     1.2970     0.0680 ns         1 5EG      -0.433500
     27 O21         -2.5760     1.7200     1.4220 o          1 5EG      -0.594100
     28 N22         -2.8070     0.1590    -0.2380 ns         1 5EG      -0.473100
     29 CL2         -8.3100    -1.9410     0.2710 cl         1 5EG      -0.110400
     30 H1           0.2960    -2.1520    -1.8270 h1         1 5EG       0.089200
     31 H2           1.5410    -0.9490    -2.1000 h1         1 5EG       0.089200
     32 H3           5.3410     0.8500    -2.0410 ha         1 5EG       0.138000
     33 H4           6.0050     3.1690    -2.3700 ha         1 5EG       0.139000
     34 H5           5.0120     4.9790    -0.9910 ha         1 5EG       0.144000
     35 H6           3.3410     4.4090     0.7460 ha         1 5EG       0.154000
     36 H7          -4.7690     1.1290     1.4420 ha         1 5EG       0.150000
     37 H8          -7.0170     0.2200     1.6160 ha         1 5EG       0.148500
     38 H9          -6.0930    -2.7190    -1.3620 ha         1 5EG       0.148500
     39 H10         -3.8300    -1.8230    -1.5370 ha         1 5EG       0.150000
     40 H11          5.1340    -1.1640    -0.6310 h1         1 5EG       0.069200
     41 H12          4.0260    -0.8980    -1.9900 h1         1 5EG       0.069200
     42 H13          0.0020     0.7350    -1.6930 hn         1 5EG       0.343500
     43 H14         -0.2500     1.8460     0.6890 hn         1 5EG       0.345500
     44 H15         -2.3120    -0.2760    -1.0020 hn         1 5EG       0.320500
@<TRIPOS>BOND
     1     1     2 1   
     2     1     3 2   
     3     1    25 1   
     4     2    17 1   
     5     2    30 1   
     6     2    31 1   
     7     4     5 ar  
     8     4     9 ar  
     9     4    23 1   
    10     5     6 ar  
    11     5    32 1   
    12     6     7 ar  
    13     6    33 1   
    14     7     8 ar  
    15     7    34 1   
    16     8     9 ar  
    17     8    35 1   
    18     9    24 1   
    19    10    26 1   
    20    10    27 2   
    21    10    28 1   
    22    11    12 ar  
    23    11    16 ar  
    24    11    28 1   
    25    12    13 ar  
    26    12    36 1   
    27    13    14 ar  
    28    13    37 1   
    29    14    15 ar  
    30    14    29 1   
    31    15    16 ar  
    32    15    38 1   
    33    16    39 1   
    34    17    18 1   
    35    17    21 1   
    36    18    19 2   
    37    19    20 1   
    38    20    21 2   
    39    21    22 1   
    40    22    23 1   
    41    22    40 1   
    42    22    41 1   
    43    25    26 1   
    44    25    42 1   
    45    26    43 1   
    46    28    44 1   
@<TRIPOS>SUBSTRUCTURE
     1 5EG         1 TEMP              0 ****  ****    0 ROOT
