@<TRIPOS>MOLECULE
5EG
   44    46     1     0     0
SMALL
No Charge or Current Charge


@<TRIPOS>ATOM
      1 C2           0.3090    -0.7180    -0.5250 c          1 5EG       0.578100
      2 C3           1.0080    -1.6650    -1.5120 c3         1 5EG      -0.003400
      3 O1           0.1830    -0.9640     0.6670 o          1 5EG      -0.512100
      4 C11          3.9680     1.3460    -0.3480 ca         1 5EG       0.134100
      5 C12          5.0430     1.6630    -1.2100 ca         1 5EG      -0.189000
      6 C13          5.4970     2.9890    -1.3170 ca         1 5EG      -0.069000
      7 C14          4.8840     4.0070    -0.5680 ca         1 5EG      -0.130000
      8 C15          3.8160     3.7010     0.2920 ca         1 5EG      -0.066000
      9 C16          3.3590     2.3760     0.4030 ca         1 5EG       0.079000
     10 C20         -2.1840     1.3440     0.1480 c          1 5EG       0.661100
     11 C23         -4.1560    -0.3000    -0.0080 ca         1 5EG      -0.002000
     12 C24         -5.0840     0.3440     0.8410 ca         1 5EG      -0.144500
     13 C25         -6.3580    -0.2150     1.0560 ca         1 5EG      -0.073000
     14 C26         -6.7140    -1.4180     0.4280 ca         1 5EG       0.092000
     15 C28         -5.7990    -2.0670    -0.4150 ca         1 5EG      -0.073000
     16 C29         -4.5260    -1.5090    -0.6300 ca         1 5EG      -0.144500
     17 N4           1.9940    -2.5650    -0.8790 na         1 5EG      -0.062700
     18 N5           1.6560    -3.8190    -0.4890 nc         1 5EG      -0.178800
     19 N6           2.7500    -4.3140     0.0250 nd         1 5EG      -0.031000
     20 N7           3.7920    -3.4170    -0.0270 nd         1 5EG      -0.358000
     21 C8           3.3150    -2.3240    -0.5890 cc         1 5EG       0.386800
     22 C9           4.0860    -1.0650    -0.9050 c3         1 5EG       0.133300
     23 O10          3.4890     0.0550    -0.2170 os         1 5EG      -0.335100
     24 Cl1          2.0210     2.0260     1.4990 cl         1 5EG      -0.174000
     25 N18         -0.1900     0.4510    -1.0870 ns         1 5EG      -0.394500
     26 N19         -0.8940     1.4590    -0.3420 ns         1 5EG      -0.366500
     27 O21         -2.6530     2.2070     0.8760 o          1 5EG      -0.594100
     28 N22         -2.8520     0.2020    -0.2720 ns         1 5EG      -0.147000
     29 Cl2         -8.3070    -2.1150     0.6990 cl         1 5EG      -0.202000
     30 H1           0.2340    -2.2570    -2.0140 h1         1 5EG       0.089200
     31 H2           1.5150    -1.0590    -2.2720 h1         1 5EG       0.089200
     32 H3           5.5380     0.8990    -1.8030 ha         1 5EG       0.120000
     33 H4           6.3240     3.2290    -1.9820 ha         1 5EG       0.121000
     34 H5           5.2370     5.0330    -0.6530 ha         1 5EG       0.126000
     35 H6           3.3430     4.4880     0.8740 ha         1 5EG       0.136000
     36 H7          -4.8420     1.2750     1.3440 ha         1 5EG       0.132000
     37 H8          -7.0680     0.2850     1.7100 ha         1 5EG       0.130500
     38 H9          -6.0750    -3.0000    -0.9010 ha         1 5EG       0.130500
     39 H10         -3.8250    -2.0210    -1.2870 ha         1 5EG       0.132000
     40 H11          5.1300    -1.1980    -0.5940 h1         1 5EG       0.069200
     41 H12          4.0670    -0.9110    -1.9910 h1         1 5EG       0.069200
     42 H13         -0.0990     0.5940    -2.0920 hn         1 5EG       0.343500
     43 H14         -0.3480     2.2470    -0.0020 hn         1 5EG       0.345500
     44 H15         -2.3030    -0.3870    -0.8820 hn         1 5EG       0.154000
@<TRIPOS>BOND
     1     1     2 1   
     2     1     3 2   
     3     1    25 1   
     4     2    17 1   
     5     2    30 1   
     6     2    31 1   
     7     4     5 ar  
     8     4     9 ar  
     9     4    23 1   
    10     5     6 ar  
    11     5    32 1   
    12     6     7 ar  
    13     6    33 1   
    14     7     8 ar  
    15     7    34 1   
    16     8     9 ar  
    17     8    35 1   
    18     9    24 1   
    19    10    26 1   
    20    10    27 2   
    21    10    28 1   
    22    11    12 ar  
    23    11    16 ar  
    24    11    28 1   
    25    12    13 ar  
    26    12    36 1   
    27    13    14 ar  
    28    13    37 1   
    29    14    15 ar  
    30    14    29 1   
    31    15    16 ar  
    32    15    38 1   
    33    16    39 1   
    34    17    18 1   
    35    17    21 1   
    36    18    19 2   
    37    19    20 1   
    38    20    21 2   
    39    21    22 1   
    40    22    23 1   
    41    22    40 1   
    42    22    41 1   
    43    25    26 1   
    44    25    42 1   
    45    26    43 1   
    46    28    44 1   
@<TRIPOS>SUBSTRUCTURE
     1 5EG         1 TEMP              0 ****  ****    0 ROOT
