@<TRIPOS>MOLECULE
5EH
   42    44     1     0     0
SMALL
No Charge or Current Charge


@<TRIPOS>ATOM
      1 C01          4.9350    -0.4490     0.7230 c3         1 5EH       0.150100
      2 N02          4.4220    -1.7030     0.1180 n3         1 5EH      -0.716600
      3 C03          5.1570    -2.8900     0.6090 c3         1 5EH       0.150100
      4 C04          2.9490    -1.8710     0.2370 c3         1 5EH       0.166800
      5 C05          2.1040    -0.7850    -0.4710 c3         1 5EH      -0.048200
      6 C06          0.6130    -1.0870    -0.4430 c2         1 5EH      -0.185200
      7 C07         -0.4120    -0.2010    -0.4140 ce         1 5EH      -0.009400
      8 C08         -0.2340     1.2840    -0.4430 ca         1 5EH      -0.023800
      9 C09          0.5680     1.8230    -1.4740 ca         1 5EH      -0.102000
     10 C10          0.7810     3.2040    -1.5850 ca         1 5EH      -0.111000
     11 C11          0.1820     4.0740    -0.6680 ca         1 5EH      -0.105000
     12 C12         -0.6360     3.5590     0.3480 ca         1 5EH      -0.115000
     13 C13         -0.8650     2.1720     0.4790 ca         1 5EH      -0.099300
     14 C14         -1.8010     1.7670     1.6360 c3         1 5EH       0.210900
     15 O15         -1.9720     0.3520     1.8170 os         1 5EH      -0.351100
     16 C16         -2.5530    -0.3870     0.8220 ca         1 5EH       0.107100
     17 C17         -3.8590    -0.8780     0.9770 ca         1 5EH      -0.121000
     18 C18         -4.4310    -1.6670    -0.0370 ca         1 5EH      -0.099000
     19 C19         -3.6870    -1.9720    -1.1910 ca         1 5EH      -0.117000
     20 C20         -2.3720    -1.4910    -1.3310 ca         1 5EH      -0.089000
     21 C21         -1.8060    -0.6910    -0.3210 ca         1 5EH      -0.068800
     22 H01          6.0260    -0.3860     0.6150 h1         1 5EH       0.030033
     23 H01A         4.5070     0.4350     0.2330 h1         1 5EH       0.030033
     24 H01B         4.6940    -0.4040     1.7940 h1         1 5EH       0.030033
     25 H03          4.9950    -3.0330     1.6860 h1         1 5EH       0.030033
     26 H03A         4.8240    -3.7970     0.0870 h1         1 5EH       0.030033
     27 H03B         6.2360    -2.7790     0.4340 h1         1 5EH       0.030033
     28 H04          2.6670    -2.8400    -0.1970 h1         1 5EH       0.033700
     29 H04A         2.6610    -1.9010     1.2970 h1         1 5EH       0.033700
     30 H05          2.2940     0.1810     0.0110 hc         1 5EH       0.058200
     31 H05A         2.4450    -0.6970    -1.5090 hc         1 5EH       0.058200
     32 H06          0.3830    -2.1530    -0.4150 ha         1 5EH       0.173000
     33 H09          1.0240     1.1620    -2.2070 ha         1 5EH       0.116000
     34 H10          1.4060     3.5980    -2.3830 ha         1 5EH       0.115000
     35 H11          0.3420     5.1470    -0.7490 ha         1 5EH       0.114000
     36 H12         -1.1040     4.2520     1.0450 ha         1 5EH       0.109000
     37 H14         -1.4020     2.1990     2.5620 h1         1 5EH       0.056700
     38 H14A        -2.7800     2.2350     1.4670 h1         1 5EH       0.056700
     39 H17         -4.4240    -0.6470     1.8760 ha         1 5EH       0.125000
     40 H18         -5.4450    -2.0460     0.0740 ha         1 5EH       0.114000
     41 H19         -4.1260    -2.5870    -1.9740 ha         1 5EH       0.115000
     42 H20         -1.7950    -1.7370    -2.2190 ha         1 5EH       0.117000
@<TRIPOS>BOND
     1     1     2 1   
     2     1    22 1   
     3     1    23 1   
     4     1    24 1   
     5     2     3 1   
     6     2     4 1   
     7     3    25 1   
     8     3    26 1   
     9     3    27 1   
    10     4     5 1   
    11     4    28 1   
    12     4    29 1   
    13     5     6 1   
    14     5    30 1   
    15     5    31 1   
    16     6     7 2   
    17     6    32 1   
    18     7     8 1   
    19     7    21 1   
    20     8     9 ar  
    21     8    13 ar  
    22     9    10 ar  
    23     9    33 1   
    24    10    11 ar  
    25    10    34 1   
    26    11    12 ar  
    27    11    35 1   
    28    12    13 ar  
    29    12    36 1   
    30    13    14 1   
    31    14    15 1   
    32    14    37 1   
    33    14    38 1   
    34    15    16 1   
    35    16    17 ar  
    36    16    21 ar  
    37    17    18 ar  
    38    17    39 1   
    39    18    19 ar  
    40    18    40 1   
    41    19    20 ar  
    42    19    41 1   
    43    20    21 ar  
    44    20    42 1   
@<TRIPOS>SUBSTRUCTURE
     1 5EH         1 TEMP              0 ****  ****    0 ROOT
