@<TRIPOS>MOLECULE
5EH
   42    44     1     0     0
SMALL
abcg2


@<TRIPOS>ATOM
      1 C01          4.8390    -0.4250     0.6110 c3         1 5EH       0.150100
      2 N02          4.3180    -1.6840     0.1210 n3         1 5EH      -0.716600
      3 C03          4.9770    -2.7940     0.7760 c3         1 5EH       0.150100
      4 C04          2.8770    -1.7820     0.2580 c3         1 5EH       0.166800
      5 C05          2.1190    -0.8260    -0.6610 c3         1 5EH      -0.048200
      6 C06          0.6490    -1.0960    -0.6040 c2         1 5EH      -0.185200
      7 C07         -0.3500    -0.2180    -0.4520 ce         1 5EH      -0.009400
      8 C08         -0.1710     1.2540    -0.4310 ca         1 5EH      -0.023800
      9 C09          0.6160     1.8380    -1.4310 ca         1 5EH      -0.102000
     10 C10          0.8100     3.2060    -1.5040 ca         1 5EH      -0.111000
     11 C11          0.2020     4.0320    -0.5680 ca         1 5EH      -0.105000
     12 C12         -0.5970     3.4720     0.4130 ca         1 5EH      -0.115000
     13 C13         -0.8010     2.0950     0.4950 ca         1 5EH      -0.099300
     14 C14         -1.7200     1.6450     1.6090 c3         1 5EH       0.210900
     15 O15         -1.8150     0.2510     1.8140 os         1 5EH      -0.351100
     16 C16         -2.4510    -0.4320     0.8190 ca         1 5EH       0.107100
     17 C17         -3.7510    -0.8800     0.9960 ca         1 5EH      -0.121000
     18 C18         -4.3530    -1.6330    -0.0050 ca         1 5EH      -0.099000
     19 C19         -3.6580    -1.9280    -1.1690 ca         1 5EH      -0.117000
     20 C20         -2.3570    -1.4680    -1.3370 ca         1 5EH      -0.089000
     21 C21         -1.7410    -0.7130    -0.3450 ca         1 5EH      -0.068800
     22 H01          5.9220    -0.4000     0.4810 h1         1 5EH       0.030033
     23 H01A         4.4280     0.4160     0.0530 h1         1 5EH       0.030033
     24 H01B         4.6270    -0.2570     1.6790 h1         1 5EH       0.030033
     25 H03          4.8130    -2.8200     1.8650 h1         1 5EH       0.030033
     26 H03A         4.6220    -3.7400     0.3640 h1         1 5EH       0.030033
     27 H03B         6.0540    -2.7390     0.6070 h1         1 5EH       0.030033
     28 H04          2.5870    -2.8050     0.0010 h1         1 5EH       0.033700
     29 H04A         2.5510    -1.6190     1.3000 h1         1 5EH       0.033700
     30 H05          2.3280     0.2120    -0.4000 hc         1 5EH       0.058200
     31 H05A         2.4810    -0.9750    -1.6850 hc         1 5EH       0.058200
     32 H06          0.3720    -2.1460    -0.6530 ha         1 5EH       0.173000
     33 H09          1.0660     1.2000    -2.1810 ha         1 5EH       0.116000
     34 H10          1.4210     3.6240    -2.2920 ha         1 5EH       0.115000
     35 H11          0.3440     5.1040    -0.6060 ha         1 5EH       0.114000
     36 H12         -1.0780     4.1180     1.1390 ha         1 5EH       0.109000
     37 H14         -1.3620     2.0600     2.5530 h1         1 5EH       0.056700
     38 H14A        -2.7180     2.0660     1.4350 h1         1 5EH       0.056700
     39 H17         -4.2790    -0.6550     1.9150 ha         1 5EH       0.125000
     40 H18         -5.3660    -1.9890     0.1300 ha         1 5EH       0.114000
     41 H19         -4.1260    -2.5140    -1.9480 ha         1 5EH       0.115000
     42 H20         -1.8150    -1.6930    -2.2480 ha         1 5EH       0.117000
@<TRIPOS>BOND
     1     1     2 1   
     2     1    22 1   
     3     1    23 1   
     4     1    24 1   
     5     2     3 1   
     6     2     4 1   
     7     3    25 1   
     8     3    26 1   
     9     3    27 1   
    10     4     5 1   
    11     4    28 1   
    12     4    29 1   
    13     5     6 1   
    14     5    30 1   
    15     5    31 1   
    16     6     7 2   
    17     6    32 1   
    18     7     8 1   
    19     7    21 1   
    20     8     9 ar  
    21     8    13 ar  
    22     9    10 ar  
    23     9    33 1   
    24    10    11 ar  
    25    10    34 1   
    26    11    12 ar  
    27    11    35 1   
    28    12    13 ar  
    29    12    36 1   
    30    13    14 1   
    31    14    15 1   
    32    14    37 1   
    33    14    38 1   
    34    15    16 1   
    35    16    17 ar  
    36    16    21 ar  
    37    17    18 ar  
    38    17    39 1   
    39    18    19 ar  
    40    18    40 1   
    41    19    20 ar  
    42    19    41 1   
    43    20    21 ar  
    44    20    42 1   
@<TRIPOS>SUBSTRUCTURE
     1 5EH         1 TEMP              0 ****  ****    0 ROOT
