@<TRIPOS>MOLECULE
5EI
   56    58     1     0     0
SMALL
No Charge or Current Charge


@<TRIPOS>ATOM
      1 C1          20.2710    -8.7510    -2.0450 c6         1 5EI       0.384300
      2 C6          19.8770    -5.5520    -0.0900 c3         1 5EI       0.168600
      3 C5          19.5190    -6.6330    -1.1630 c6         1 5EI       0.150300
      4 C4          18.0280    -7.0920    -1.0940 c6         1 5EI       0.123300
      5 C3          17.7970    -8.1900    -2.1940 c6         1 5EI       0.177300
      6 C2          18.8250    -9.3550    -2.0470 c6         1 5EI       0.154300
      7 O5          20.3930    -7.7760    -0.9900 os         1 5EI      -0.450000
      8 O1          21.2820    -9.7580    -1.8710 os         1 5EI      -0.434000
      9 O2          18.5410   -10.1180    -0.8360 os         1 5EI      -0.396100
     10 C8          18.9190   -11.4330    -0.7250 c          1 5EI       0.622700
     11 O3          16.4540    -8.7290    -2.1530 os         1 5EI      -0.421100
     12 C9          15.3680    -7.9640    -2.4880 c          1 5EI       0.616700
     13 O4          17.6940    -7.6070     0.2130 oh         1 5EI      -0.684000
     14 O6          21.2420    -5.0960    -0.1820 oh         1 5EI      -0.710000
     15 O8          15.4590    -6.8280    -2.9370 o          1 5EI      -0.498000
     16 O7          19.4160   -12.0760    -1.6400 o          1 5EI      -0.483000
     17 CA1         18.5270   -12.0640     0.5870 ca         1 5EI      -0.146600
     18 CB1         14.0490    -8.6790    -2.3180 ca         1 5EI      -0.151600
     19 CB2         12.8460    -8.0330    -2.6800 ca         1 5EI      -0.046500
     20 CB6         13.9850    -9.9910    -1.7940 ca         1 5EI      -0.046500
     21 CB3         11.6100    -8.6840    -2.5250 ca         1 5EI      -0.131000
     22 CB5         12.7460   -10.6370    -1.6400 ca         1 5EI      -0.131000
     23 CB4         11.5520    -9.9880    -2.0020 ca         1 5EI      -0.039300
     24 C10         10.2140   -10.6920    -1.8370 c3         1 5EI      -0.054800
     25 CA6         19.1210   -13.2820     0.9760 ca         1 5EI      -0.019000
     26 CA2         17.5610   -11.4670     1.4310 ca         1 5EI       0.013000
     27 CA5         18.7680   -13.8890     2.1910 ca         1 5EI      -0.140000
     28 CA3         17.2000   -12.0760     2.6570 ca         1 5EI      -0.200200
     29 N1          16.1740   -11.4410     3.5440 no         1 5EI       0.697200
     30 CA4         17.8140   -13.2930     3.0320 ca         1 5EI      -0.025000
     31 ON2         15.6530   -10.3830     3.1700 o          1 5EI      -0.398500
     32 ON1         15.8920   -12.0040     4.6090 o          1 5EI      -0.398500
     33 H1          20.4410    -8.2530    -3.0120 h2         1 5EI       0.025700
     34 H2          19.1900    -4.7050    -0.2180 h1         1 5EI       0.033200
     35 H3          19.6910    -5.9750     0.9060 h1         1 5EI       0.033200
     36 H4          19.7110    -6.1910    -2.1520 h1         1 5EI       0.048700
     37 H5          17.3980    -6.2210    -1.3210 h1         1 5EI       0.055700
     38 H6          17.9500    -7.7320    -3.1830 h1         1 5EI       0.070700
     39 H7          18.7130   -10.0090    -2.9220 h1         1 5EI       0.091700
     40 H8          23.3300   -10.1700    -1.8790 h1         1 5EI       0.040033
     41 H9          22.8220    -8.8820    -2.9920 h1         1 5EI       0.040033
     42 H10         22.8940    -8.5720    -1.2390 h1         1 5EI       0.040033
     43 H11         18.1040    -8.5020     0.2530 ho         1 5EI       0.506000
     44 H12         21.3940    -4.4880     0.5800 ho         1 5EI       0.508000
     45 H13         12.8650    -7.0230    -3.0860 ha         1 5EI       0.133000
     46 H14         14.8900   -10.5200    -1.5020 ha         1 5EI       0.133000
     47 H15         10.6950    -8.1710    -2.8120 ha         1 5EI       0.117500
     48 H16         12.7160   -11.6470    -1.2370 ha         1 5EI       0.117500
     49 H17          9.9550   -11.2540    -2.7410 hc         1 5EI       0.047033
     50 H18         10.2340   -11.3970    -0.9970 hc         1 5EI       0.047033
     51 H19          9.4060    -9.9750    -1.6450 hc         1 5EI       0.047033
     52 H20         19.8630   -13.7600     0.3380 ha         1 5EI       0.145000
     53 H21         17.0800   -10.5380     1.1280 ha         1 5EI       0.184000
     54 H22         19.2350   -14.8270     2.4830 ha         1 5EI       0.132000
     55 H23         17.5570   -13.7850     3.9690 ha         1 5EI       0.151000
     56 C7          22.6460    -9.3220    -2.0020 c3         1 5EI       0.150900
@<TRIPOS>BOND
     1     1     6 1   
     2     1     7 1   
     3     1     8 1   
     4     1    33 1   
     5     2     3 1   
     6     2    14 1   
     7     2    34 1   
     8     2    35 1   
     9     3     4 1   
    10     3     7 1   
    11     3    36 1   
    12     4     5 1   
    13     4    13 1   
    14     4    37 1   
    15     5     6 1   
    16     5    11 1   
    17     5    38 1   
    18     6     9 1   
    19     6    39 1   
    20     8    56 1   
    21     9    10 1   
    22    10    16 2   
    23    10    17 1   
    24    11    12 1   
    25    12    15 2   
    26    12    18 1   
    27    13    43 1   
    28    14    44 1   
    29    17    25 ar  
    30    17    26 ar  
    31    18    19 ar  
    32    18    20 ar  
    33    19    21 ar  
    34    19    45 1   
    35    20    22 ar  
    36    20    46 1   
    37    21    23 ar  
    38    21    47 1   
    39    22    23 ar  
    40    22    48 1   
    41    23    24 1   
    42    24    49 1   
    43    24    50 1   
    44    24    51 1   
    45    25    27 ar  
    46    25    52 1   
    47    26    28 ar  
    48    26    53 1   
    49    27    30 ar  
    50    27    54 1   
    51    28    29 1   
    52    28    30 ar  
    53    29    31 1   
    54    29    32 1   
    55    30    55 1   
    56    40    56 1   
    57    41    56 1   
    58    42    56 1   
@<TRIPOS>SUBSTRUCTURE
     1 5EI         1 TEMP              0 ****  ****    0 ROOT
