@<TRIPOS>MOLECULE
5EI
   56    58     1     0     0
SMALL
bcc


@<TRIPOS>ATOM
      1 C1          20.1850    -8.7020    -1.9080 c6         1 5EI       0.337900
      2 C6          19.7620    -5.6870     0.1020 c3         1 5EI       0.145400
      3 C5          19.4460    -6.6730    -1.0010 c6         1 5EI       0.127100
      4 C4          17.9620    -7.0620    -1.0200 c6         1 5EI       0.100100
      5 C3          17.7730    -8.1180    -2.1130 c6         1 5EI       0.154100
      6 C2          18.7720    -9.2650    -2.0320 c6         1 5EI       0.131100
      7 O5          20.2590    -7.8150    -0.8280 os         1 5EI      -0.403600
      8 O1          21.0460    -9.7470    -1.6920 os         1 5EI      -0.387600
      9 O2          18.4890   -10.0330    -0.8720 os         1 5EI      -0.372900
     10 C8          18.5100   -11.3540    -0.9220 c          1 5EI       0.671700
     11 O3          16.4890    -8.7190    -2.0690 os         1 5EI      -0.397900
     12 C9          15.4340    -8.0660    -2.5450 c          1 5EI       0.665700
     13 O4          17.5110    -7.5700     0.2090 oh         1 5EI      -0.561800
     14 O6          21.0910    -5.2500    -0.0500 oh         1 5EI      -0.587800
     15 O8          15.4970    -6.9710    -3.0480 o          1 5EI      -0.547000
     16 O7          18.7100   -12.0080    -1.9130 o          1 5EI      -0.532000
     17 CA1         18.2360   -11.9510     0.4130 ca         1 5EI      -0.146600
     18 CB1         14.1850    -8.8450    -2.3900 ca         1 5EI      -0.151600
     19 CB2         12.9970    -8.3030    -2.8770 ca         1 5EI      -0.064500
     20 CB6         14.1550   -10.0960    -1.7730 ca         1 5EI      -0.064500
     21 CB3         11.8070    -8.9990    -2.7520 ca         1 5EI      -0.149000
     22 CB5         12.9600   -10.7840    -1.6520 ca         1 5EI      -0.149000
     23 CB4         11.7680   -10.2520    -2.1400 ca         1 5EI      -0.039300
     24 C10         10.4840   -11.0160    -2.0320 c3         1 5EI      -0.054800
     25 CA6         18.2640   -13.3380     0.5370 ca         1 5EI      -0.037000
     26 CA2         17.9570   -11.1600     1.5210 ca         1 5EI      -0.005000
     27 CA5         18.0170   -13.9370     1.7620 ca         1 5EI      -0.158000
     28 CA3         17.7090   -11.7820     2.7330 ca         1 5EI      -0.200200
     29 N1          17.4100   -10.9570     3.8980 no         1 5EI       0.317200
     30 CA4         17.7350   -13.1620     2.8740 ca         1 5EI      -0.043000
     31 ON2         17.4160    -9.7580     3.7600 o          1 5EI      -0.208500
     32 ON1         17.1720   -11.5200     4.9390 o          1 5EI      -0.208500
     33 H1          20.4270    -8.1670    -2.8470 h2         1 5EI       0.025700
     34 H2          19.0480    -4.8560     0.0250 h1         1 5EI       0.033200
     35 H3          19.6010    -6.1630     1.0760 h1         1 5EI       0.033200
     36 H4          19.6700    -6.1930    -1.9690 h1         1 5EI       0.048700
     37 H5          17.3950    -6.1700    -1.3100 h1         1 5EI       0.055700
     38 H6          17.9340    -7.6240    -3.0770 h1         1 5EI       0.070700
     39 H7          18.6960    -9.8780    -2.9340 h1         1 5EI       0.091700
     40 H8          22.9750   -10.3550    -1.7510 h1         1 5EI       0.040033
     41 H9          22.6350    -8.9510    -2.7780 h1         1 5EI       0.040033
     42 H10         22.7610    -8.7590    -1.0160 h1         1 5EI       0.040033
     43 H11         17.1690    -6.8440     0.7390 ho         1 5EI       0.407000
     44 H12         21.2980    -4.6650     0.6850 ho         1 5EI       0.409000
     45 H13         13.0000    -7.3320    -3.3540 ha         1 5EI       0.151000
     46 H14         15.0580   -10.5400    -1.3770 ha         1 5EI       0.151000
     47 H15         10.8930    -8.5610    -3.1330 ha         1 5EI       0.135500
     48 H16         12.9540   -11.7520    -1.1660 ha         1 5EI       0.135500
     49 H17         10.3390   -11.6490    -2.9100 hc         1 5EI       0.047033
     50 H18         10.4790   -11.6680    -1.1590 hc         1 5EI       0.047033
     51 H19          9.6250   -10.3500    -1.9680 hc         1 5EI       0.047033
     52 H20         18.4810   -13.9520    -0.3270 ha         1 5EI       0.163000
     53 H21         17.9280   -10.0830     1.4390 ha         1 5EI       0.202000
     54 H22         18.0440   -15.0140     1.8530 ha         1 5EI       0.150000
     55 H23         17.5420   -13.6310     3.8270 ha         1 5EI       0.169000
     56 C7          22.4190    -9.4220    -1.8130 c3         1 5EI       0.127700
@<TRIPOS>BOND
     1     1     6 1   
     2     1     7 1   
     3     1     8 1   
     4     1    33 1   
     5     2     3 1   
     6     2    14 1   
     7     2    34 1   
     8     2    35 1   
     9     3     4 1   
    10     3     7 1   
    11     3    36 1   
    12     4     5 1   
    13     4    13 1   
    14     4    37 1   
    15     5     6 1   
    16     5    11 1   
    17     5    38 1   
    18     6     9 1   
    19     6    39 1   
    20     8    56 1   
    21     9    10 1   
    22    10    16 2   
    23    10    17 1   
    24    11    12 1   
    25    12    15 2   
    26    12    18 1   
    27    13    43 1   
    28    14    44 1   
    29    17    25 ar  
    30    17    26 ar  
    31    18    19 ar  
    32    18    20 ar  
    33    19    21 ar  
    34    19    45 1   
    35    20    22 ar  
    36    20    46 1   
    37    21    23 ar  
    38    21    47 1   
    39    22    23 ar  
    40    22    48 1   
    41    23    24 1   
    42    24    49 1   
    43    24    50 1   
    44    24    51 1   
    45    25    27 ar  
    46    25    52 1   
    47    26    28 ar  
    48    26    53 1   
    49    27    30 ar  
    50    27    54 1   
    51    28    29 1   
    52    28    30 ar  
    53    29    31 1   
    54    29    32 1   
    55    30    55 1   
    56    40    56 1   
    57    41    56 1   
    58    42    56 1   
@<TRIPOS>SUBSTRUCTURE
     1 5EI         1 TEMP              0 ****  ****    0 ROOT
