@<TRIPOS>MOLECULE
5EK
   54    58     1     0     0
SMALL
abcg2


@<TRIPOS>ATOM
      1 C2           2.0350    -0.7660     0.1560 c          1 5EK       0.575100
      2 C3           2.5590     0.2630    -0.8350 c3         1 5EK      -0.003400
      3 O1           2.1740    -1.9550     0.0050 o          1 5EK      -0.515100
      4 C11         -0.3970    -1.6390     1.9960 c          1 5EK       0.653100
      5 C14         -2.4720    -1.6030     0.7090 ca         1 5EK      -0.010000
      6 C15         -3.4380    -0.6420     0.4660 ca         1 5EK      -0.165000
      7 C16         -4.7190    -1.0810     0.1510 ca         1 5EK      -0.014200
      8 C17         -5.0640    -2.4460     0.1040 ca         1 5EK      -0.104800
      9 C18         -4.0670    -3.3930     0.3530 ca         1 5EK      -0.045000
     10 C19         -2.7850    -2.9740     0.6400 ca         1 5EK      -0.127000
     11 C20         -6.4580    -2.5130    -0.2130 cc         1 5EK      -0.226200
     12 C21         -6.8950    -1.2320    -0.3390 cd         1 5EK      -0.149100
     13 C23         -5.9520     1.0460    -0.1450 ca         1 5EK       0.006800
     14 C24          5.5700     1.0850    -0.5010 ca         1 5EK      -0.141500
     15 C25          6.1850     2.2080    -1.0510 ca         1 5EK      -0.060000
     16 C26          6.7330     3.1820    -0.2350 ca         1 5EK      -0.110000
     17 C27          6.6740     3.0410     1.1450 ca         1 5EK      -0.081000
     18 C28          6.0770     1.9250     1.7110 ca         1 5EK      -0.107000
     19 C29          5.5340     0.9550     0.8850 ca         1 5EK       0.131000
     20 N4           3.7110    -0.2330    -1.5390 na         1 5EK      -0.067700
     21 N5           3.5960    -1.1260    -2.5090 nc         1 5EK      -0.173800
     22 N6           4.7700    -1.3450    -2.9480 nd         1 5EK      -0.038000
     23 N7           5.6730    -0.6170    -2.2920 nd         1 5EK      -0.363000
     24 C8           5.0080     0.0790    -1.4050 cc         1 5EK       0.448000
     25 N9           1.3420    -0.2100     1.1820 ns         1 5EK      -0.393500
     26 N10          0.8080    -0.9880     2.1630 ns         1 5EK      -0.366500
     27 O12         -0.7230    -2.5320     2.7560 o          1 5EK      -0.592100
     28 N13         -1.1580    -1.1740     0.9710 ns         1 5EK      -0.151000
     29 N22         -5.8520    -0.3570    -0.1270 na         1 5EK      -0.008500
     30 CL3          4.8340    -0.4570     1.5970 cl         1 5EK      -0.182000
     31 C31         -5.3550     1.7950    -1.1570 ca         1 5EK       0.114000
     32 C32         -5.4520     3.1780    -1.1650 ca         1 5EK      -0.103000
     33 C33         -6.1650     3.8200    -0.1640 ca         1 5EK      -0.098000
     34 C34         -6.7760     3.0840     0.8430 ca         1 5EK      -0.103000
     35 C35         -6.6600     1.7030     0.8540 ca         1 5EK      -0.097000
     36 CL6         -4.5080     0.9970    -2.4310 cl         1 5EK      -0.172000
     37 H1           1.7740     0.4730    -1.5620 h1         1 5EK       0.089700
     38 H2           2.8190     1.2080    -0.3620 h1         1 5EK       0.089700
     39 H3          -3.1990     0.4130     0.5260 ha         1 5EK       0.116000
     40 H4          -4.2900    -4.4520     0.3110 ha         1 5EK       0.121000
     41 H5          -2.0090    -3.7080     0.8010 ha         1 5EK       0.136000
     42 H6          -7.0570    -3.4010    -0.3360 ha         1 5EK       0.208000
     43 H7          -7.8760    -0.8530    -0.5790 h4         1 5EK       0.216000
     44 H8           6.2220     2.3150    -2.1270 ha         1 5EK       0.136000
     45 H9           7.2030     4.0510    -0.6750 ha         1 5EK       0.128000
     46 H10          7.0990     3.7990     1.7890 ha         1 5EK       0.125000
     47 H11          6.0410     1.8040     2.7850 ha         1 5EK       0.137000
     48 H12          1.3700     0.7840     1.3550 hn         1 5EK       0.341500
     49 H13          1.4640    -1.4390     2.7870 hn         1 5EK       0.335500
     50 H14         -0.8770    -0.3100     0.5310 hn         1 5EK       0.152000
     51 H15         -4.9810     3.7470    -1.9550 ha         1 5EK       0.132000
     52 H16         -6.2450     4.8990    -0.1760 ha         1 5EK       0.122000
     53 H17         -7.3310     3.5840     1.6250 ha         1 5EK       0.125000
     54 H18         -7.1150     1.1190     1.6440 ha         1 5EK       0.134000
@<TRIPOS>BOND
     1     1     2 1   
     2     1     3 2   
     3     1    25 1   
     4     2    20 1   
     5     2    37 1   
     6     2    38 1   
     7     4    26 1   
     8     4    27 2   
     9     4    28 1   
    10     5     6 ar  
    11     5    10 ar  
    12     5    28 1   
    13     6     7 ar  
    14     6    39 1   
    15     7     8 ar  
    16     7    29 1   
    17     8     9 ar  
    18     8    11 1   
    19     9    10 ar  
    20     9    40 1   
    21    10    41 1   
    22    11    12 2   
    23    11    42 1   
    24    12    29 1   
    25    12    43 1   
    26    13    29 1   
    27    13    31 ar  
    28    13    35 ar  
    29    14    15 ar  
    30    14    19 ar  
    31    14    24 1   
    32    15    16 ar  
    33    15    44 1   
    34    16    17 ar  
    35    16    45 1   
    36    17    18 ar  
    37    17    46 1   
    38    18    19 ar  
    39    18    47 1   
    40    19    30 1   
    41    20    21 1   
    42    20    24 1   
    43    21    22 2   
    44    22    23 1   
    45    23    24 2   
    46    25    26 1   
    47    25    48 1   
    48    26    49 1   
    49    28    50 1   
    50    31    32 ar  
    51    31    36 1   
    52    32    33 ar  
    53    32    51 1   
    54    33    34 ar  
    55    33    52 1   
    56    34    35 ar  
    57    34    53 1   
    58    35    54 1   
@<TRIPOS>SUBSTRUCTURE
     1 5EK         1 TEMP              0 ****  ****    0 ROOT
