@<TRIPOS>MOLECULE
5EK
   54    58     1     0     0
SMALL
No Charge or Current Charge


@<TRIPOS>ATOM
      1 C2           1.9200    -1.0910     2.9200 c          1 5EK       0.575100
      2 C3           2.2790     0.3390     2.4890 c3         1 5EK      -0.003400
      3 O1           2.3080    -2.0810     2.3170 o          1 5EK      -0.515100
      4 C11         -0.7470    -2.8310     3.5540 c          1 5EK       0.653100
      5 C14         -2.0510    -2.0430     1.4840 ca         1 5EK      -0.010000
      6 C15         -1.9200    -1.1120     0.4330 ca         1 5EK      -0.165000
      7 C16         -2.8380    -1.1530    -0.6190 ca         1 5EK      -0.014200
      8 C17         -3.8670    -2.0500    -0.6350 ca         1 5EK      -0.104800
      9 C18         -4.0480    -2.9830     0.3950 ca         1 5EK      -0.045000
     10 C19         -3.1200    -2.9800     1.4620 ca         1 5EK      -0.127000
     11 C20         -4.6410    -1.7890    -1.8180 cc         1 5EK      -0.226200
     12 C21         -4.0460    -0.7090    -2.4690 cd         1 5EK      -0.149100
     13 C23         -2.4820     0.9550    -1.8540 ca         1 5EK       0.006800
     14 C24          1.7520     1.8130    -0.3330 ca         1 5EK      -0.141500
     15 C25          2.1590     3.0710    -0.8280 ca         1 5EK      -0.060000
     16 C26          2.9620     3.1640    -1.9770 ca         1 5EK      -0.110000
     17 C27          3.3480     2.0010    -2.6610 ca         1 5EK      -0.081000
     18 C28          2.9160     0.7480    -2.2010 ca         1 5EK      -0.107000
     19 C29          2.1140     0.6500    -1.0500 ca         1 5EK       0.131000
     20 N4           1.1070     1.1320     2.0420 na         1 5EK      -0.067700
     21 N5           0.1120     1.4420     2.9120 nc         1 5EK      -0.173800
     22 N6          -0.6880     2.2300     2.2500 nd         1 5EK      -0.038000
     23 N7          -0.2200     2.4830     0.9860 nd         1 5EK      -0.363000
     24 C8           0.8750     1.7670     0.8380 cc         1 5EK       0.448000
     25 N9           1.0810    -1.1920     4.0240 ns         1 5EK      -0.393500
     26 N10          0.3110    -2.3680     4.3260 ns         1 5EK      -0.366500
     27 O12         -1.2990    -3.8940     3.7990 o          1 5EK      -0.592100
     28 N13         -1.0820    -1.9770     2.5140 ns         1 5EK      -0.151000
     29 N22         -2.8650    -0.3820    -1.7650 na         1 5EK      -0.008500
     30 Cl3          1.5180    -0.9400    -0.5940 cl         1 5EK      -0.182000
     31 C31         -1.3660     1.3310    -2.6330 ca         1 5EK       0.114000
     32 C32         -0.9630     2.6760    -2.6880 ca         1 5EK      -0.103000
     33 C33         -1.6730     3.6550    -1.9700 ca         1 5EK      -0.098000
     34 C34         -2.7850     3.2870    -1.1940 ca         1 5EK      -0.103000
     35 C35         -3.1860     1.9400    -1.1320 ca         1 5EK      -0.097000
     36 Cl6         -0.4540     0.1320    -3.5530 cl         1 5EK      -0.172000
     37 H1           2.7450     0.8440     3.3440 h1         1 5EK       0.089700
     38 H2           3.0190     0.2800     1.6830 h1         1 5EK       0.089700
     39 H3          -1.1160    -0.3830     0.4280 ha         1 5EK       0.116000
     40 H4          -4.8780    -3.6860     0.3750 ha         1 5EK       0.121000
     41 H5          -3.2520    -3.6960     2.2670 ha         1 5EK       0.136000
     42 H6          -5.5660    -2.2770    -2.1200 ha         1 5EK       0.208000
     43 H7          -4.3660    -0.1620    -3.3510 h4         1 5EK       0.216000
     44 H8           1.8600     3.9830    -0.3120 ha         1 5EK       0.136000
     45 H9           3.2800     4.1390    -2.3400 ha         1 5EK       0.128000
     46 H10          3.9650     2.0720    -3.5550 ha         1 5EK       0.125000
     47 H11          3.1870    -0.1520    -2.7470 ha         1 5EK       0.137000
     48 H12          0.7900    -0.3280     4.4800 hn         1 5EK       0.341500
     49 H13          0.6490    -2.9750     5.0690 hn         1 5EK       0.335500
     50 H14         -0.5090    -1.1460     2.4740 hn         1 5EK       0.152000
     51 H15         -0.1000     2.9590    -3.2850 ha         1 5EK       0.132000
     52 H16         -1.3580     4.6950    -2.0120 ha         1 5EK       0.122000
     53 H17         -3.3310     4.0420    -0.6340 ha         1 5EK       0.125000
     54 H18         -4.0410     1.6590    -0.5200 ha         1 5EK       0.134000
@<TRIPOS>BOND
     1     1     2 1   
     2     1     3 2   
     3     1    25 1   
     4     2    20 1   
     5     2    37 1   
     6     2    38 1   
     7     4    26 1   
     8     4    27 2   
     9     4    28 1   
    10     5     6 ar  
    11     5    10 ar  
    12     5    28 1   
    13     6     7 ar  
    14     6    39 1   
    15     7     8 ar  
    16     7    29 1   
    17     8     9 ar  
    18     8    11 1   
    19     9    10 ar  
    20     9    40 1   
    21    10    41 1   
    22    11    12 2   
    23    11    42 1   
    24    12    29 1   
    25    12    43 1   
    26    13    29 1   
    27    13    31 ar  
    28    13    35 ar  
    29    14    15 ar  
    30    14    19 ar  
    31    14    24 1   
    32    15    16 ar  
    33    15    44 1   
    34    16    17 ar  
    35    16    45 1   
    36    17    18 ar  
    37    17    46 1   
    38    18    19 ar  
    39    18    47 1   
    40    19    30 1   
    41    20    21 1   
    42    20    24 1   
    43    21    22 2   
    44    22    23 1   
    45    23    24 2   
    46    25    26 1   
    47    25    48 1   
    48    26    49 1   
    49    28    50 1   
    50    31    32 ar  
    51    31    36 1   
    52    32    33 ar  
    53    32    51 1   
    54    33    34 ar  
    55    33    52 1   
    56    34    35 ar  
    57    34    53 1   
    58    35    54 1   
@<TRIPOS>SUBSTRUCTURE
     1 5EK         1 TEMP              0 ****  ****    0 ROOT
