@<TRIPOS>MOLECULE
5EL
   61    65     1     0     0
SMALL
No Charge or Current Charge


@<TRIPOS>ATOM
      1 C1           2.1520    -1.0270    -0.8870 ca         1 5EL      -0.080000
      2 C2           0.8960    -1.5750    -0.5660 ca         1 5EL      -0.120500
      3 C3           0.6230    -1.9810     0.7560 ca         1 5EL       0.102100
      4 C4           1.6130    -1.8590     1.7450 ca         1 5EL      -0.120500
      5 C5           2.8680    -1.3120     1.4230 ca         1 5EL      -0.080000
      6 C6           3.1390    -0.8920     0.1070 ca         1 5EL       0.029000
      7 C7           4.4180    -0.3340    -0.2190 cg         1 5EL      -0.113000
      8 C8           5.5050     0.1410    -0.4810 c1         1 5EL      -0.137100
      9 C9           6.8360     0.7190    -0.7700 c6         1 5EL       0.234100
     10 C10          7.9970    -0.2710    -0.3490 c6         1 5EL       0.129800
     11 N1           8.9600     0.3680     0.6160 n3         1 5EL      -0.676600
     12 C11          9.5700     1.5800    -0.0180 c6         1 5EL       0.145300
     13 C12          8.4710     2.6310    -0.3770 c6         1 5EL      -0.104900
     14 C13          7.0630     2.0720    -0.0040 c6         1 5EL      -0.049700
     15 C14          7.1010     1.7990     1.5340 c6         1 5EL      -0.104900
     16 C15          8.2270     0.7650     1.8590 c6         1 5EL       0.145300
     17 O1           6.8490     0.9460    -2.1850 oh         1 5EL      -0.643000
     18 O2          -0.5920    -2.5330     1.0940 os         1 5EL      -0.251200
     19 C16         -1.7860    -2.0850     0.5760 ca         1 5EL       0.160100
     20 C17         -2.7920    -3.0150     0.2850 ca         1 5EL      -0.172000
     21 C18         -4.0260    -2.5850    -0.2320 ca         1 5EL      -0.038500
     22 C19         -4.2750    -1.2120    -0.4590 ca         1 5EL      -0.185600
     23 C20         -3.2550    -0.2780    -0.1480 ca         1 5EL      -0.038500
     24 C21         -2.0230    -0.7150     0.3700 ca         1 5EL      -0.172000
     25 C22         -5.6180    -0.7870    -1.0170 c          1 5EL       0.615700
     26 O3          -6.4980    -1.5950    -1.2760 o          1 5EL      -0.591100
     27 N2          -5.8030     0.5630    -1.2240 ns         1 5EL      -0.510900
     28 C23         -7.0380     1.1670    -1.7260 c3         1 5EL       0.151300
     29 C24         -7.9870     1.5230    -0.5910 ca         1 5EL      -0.054300
     30 C25         -8.9850     0.6280    -0.1660 ca         1 5EL      -0.152000
     31 C26         -9.8360     0.9940     0.8910 ca         1 5EL       0.335900
     32 N3          -9.7450     2.1830     1.5320 nb         1 5EL      -0.664000
     33 C27         -8.7840     3.0450     1.1250 ca         1 5EL       0.335900
     34 C28         -7.8920     2.7570     0.0770 ca         1 5EL      -0.152000
     35 H1           2.3570    -0.7110    -1.9080 ha         1 5EL       0.125500
     36 H2           0.1430    -1.6850    -1.3420 ha         1 5EL       0.133000
     37 H4           1.4050    -2.1850     2.7610 ha         1 5EL       0.133000
     38 H5           3.6290    -1.2140     2.1960 ha         1 5EL       0.125500
     39 H101         7.5690    -1.1780     0.1040 h1         1 5EL       0.063200
     40 H102         8.5350    -0.6050    -1.2490 h1         1 5EL       0.063200
     41 H13          6.2790     2.8010    -0.2510 hc         1 5EL       0.072700
     42 HA           6.3110     0.2250    -2.5750 ho         1 5EL       0.448000
     43 H111        10.3050     2.0390     0.6600 h1         1 5EL       0.055700
     44 H112        10.1150     1.2990    -0.9320 h1         1 5EL       0.055700
     45 H151         7.7800    -0.1190     2.3380 h1         1 5EL       0.055700
     46 H152         8.9220     1.2030     2.5920 h1         1 5EL       0.055700
     47 H121         8.6630     3.5680     0.1640 hc         1 5EL       0.052200
     48 H122         8.5240     2.8820    -1.4450 hc         1 5EL       0.052200
     49 H141         7.2900     2.7340     2.0790 hc         1 5EL       0.052200
     50 H142         6.1330     1.4290     1.8980 hc         1 5EL       0.052200
     51 H17         -2.6140    -4.0740     0.4570 ha         1 5EL       0.133000
     52 H21         -1.2550     0.0150     0.6140 ha         1 5EL       0.133000
     53 H18         -4.7900    -3.3280    -0.4550 ha         1 5EL       0.124500
     54 H20         -3.3990     0.7890    -0.2950 ha         1 5EL       0.124500
     55 HB          -5.0340     1.1740    -0.9870 hn         1 5EL       0.319500
     56 H231        -6.7810     2.0750    -2.2880 h1         1 5EL       0.058700
     57 H232        -7.5310     0.4770    -2.4250 h1         1 5EL       0.058700
     58 H25         -9.1030    -0.3420    -0.6420 ha         1 5EL       0.121000
     59 H28         -7.1390     3.4880    -0.2040 ha         1 5EL       0.121000
     60 H26        -10.6150     0.3150     1.2350 h4         1 5EL       0.017100
     61 H27         -8.7280     3.9940     1.6560 h4         1 5EL       0.017100
@<TRIPOS>BOND
     1     1     2 ar  
     2     1     6 ar  
     3     1    35 1   
     4     2     3 ar  
     5     2    36 1   
     6     3     4 ar  
     7     3    18 1   
     8     4     5 ar  
     9     4    37 1   
    10     5     6 ar  
    11     5    38 1   
    12     6     7 1   
    13     7     8 3   
    14     8     9 1   
    15     9    10 1   
    16     9    14 1   
    17     9    17 1   
    18    10    11 1   
    19    10    39 1   
    20    10    40 1   
    21    11    12 1   
    22    11    16 1   
    23    12    13 1   
    24    12    43 1   
    25    12    44 1   
    26    13    14 1   
    27    13    47 1   
    28    13    48 1   
    29    14    15 1   
    30    14    41 1   
    31    15    16 1   
    32    15    49 1   
    33    15    50 1   
    34    16    45 1   
    35    16    46 1   
    36    17    42 1   
    37    18    19 1   
    38    19    20 ar  
    39    19    24 ar  
    40    20    21 ar  
    41    20    51 1   
    42    21    22 ar  
    43    21    53 1   
    44    22    23 ar  
    45    22    25 1   
    46    23    24 ar  
    47    23    54 1   
    48    24    52 1   
    49    25    26 2   
    50    25    27 1   
    51    27    28 1   
    52    27    55 1   
    53    28    29 1   
    54    28    56 1   
    55    28    57 1   
    56    29    30 ar  
    57    29    34 ar  
    58    30    31 ar  
    59    30    58 1   
    60    31    32 ar  
    61    31    60 1   
    62    32    33 ar  
    63    33    34 ar  
    64    33    61 1   
    65    34    59 1   
@<TRIPOS>SUBSTRUCTURE
     1 5EL         1 TEMP              0 ****  ****    0 ROOT
