@<TRIPOS>MOLECULE
5EL
   61    65     1     0     0
SMALL
abcg2


@<TRIPOS>ATOM
      1 C1           2.3440    -1.5530    -1.2680 ca         1 5EL      -0.080000
      2 C2           1.1230    -2.1850    -1.1070 ca         1 5EL      -0.120500
      3 C3           0.6340    -2.4070     0.1720 ca         1 5EL       0.102100
      4 C4           1.3480    -2.0010     1.2880 ca         1 5EL      -0.120500
      5 C5           2.5730    -1.3750     1.1230 ca         1 5EL      -0.080000
      6 C6           3.0840    -1.1410    -0.1550 ca         1 5EL       0.029000
      7 C7           4.3450    -0.4970    -0.3210 cg         1 5EL      -0.113000
      8 C8           5.4080     0.0540    -0.4600 c1         1 5EL      -0.137100
      9 C9           6.7170     0.6970    -0.6260 c6         1 5EL       0.234100
     10 C10          7.8100    -0.0580     0.2020 c6         1 5EL       0.129800
     11 N1           8.5950     0.8430     1.0200 n3         1 5EL      -0.676600
     12 C11          9.1540     1.9090     0.1940 c6         1 5EL       0.145300
     13 C12          8.0400     2.8100    -0.3820 c6         1 5EL      -0.104900
     14 C13          6.6930     2.1430    -0.0900 c6         1 5EL      -0.049700
     15 C14          6.5020     2.1060     1.4270 c6         1 5EL      -0.104900
     16 C15          7.7380     1.4180     2.0520 c6         1 5EL       0.145300
     17 O1           7.0350     0.7620    -2.0000 oh         1 5EL      -0.643000
     18 O2          -0.5450    -3.0850     0.3530 os         1 5EL      -0.251200
     19 C16         -1.7250    -2.4700     0.0900 ca         1 5EL       0.160100
     20 C17         -2.8550    -3.2850     0.0980 ca         1 5EL      -0.172000
     21 C18         -4.0990    -2.7340    -0.1300 ca         1 5EL      -0.038500
     22 C19         -4.2430    -1.3720    -0.3960 ca         1 5EL      -0.185600
     23 C20         -3.1050    -0.5720    -0.3940 ca         1 5EL      -0.038500
     24 C21         -1.8490    -1.1060    -0.1510 ca         1 5EL      -0.172000
     25 C22         -5.6140    -0.8360    -0.6200 c          1 5EL       0.615700
     26 O3          -6.6040    -1.4050    -0.1810 o          1 5EL      -0.591100
     27 N2          -5.7080     0.3030    -1.3320 ns         1 5EL      -0.510900
     28 C23         -6.9830     0.9240    -1.5820 c3         1 5EL       0.151300
     29 C24         -7.5980     1.5570    -0.3610 ca         1 5EL      -0.054300
     30 C25         -8.9790     1.6130    -0.2130 ca         1 5EL      -0.152000
     31 C26         -9.5150     2.2420     0.8990 ca         1 5EL       0.335900
     32 N3          -8.7790     2.8030     1.8520 nb         1 5EL      -0.664000
     33 C27         -7.4590     2.7470     1.7090 ca         1 5EL       0.335900
     34 C28         -6.8250     2.1430     0.6340 ca         1 5EL      -0.152000
     35 H1           2.7310    -1.3820    -2.2630 ha         1 5EL       0.125500
     36 H2           0.5620    -2.5100    -1.9740 ha         1 5EL       0.133000
     37 H4           0.9560    -2.1810     2.2810 ha         1 5EL       0.133000
     38 H5           3.1360    -1.0640     1.9930 ha         1 5EL       0.125500
     39 H101         7.3510    -0.8030     0.8550 h1         1 5EL       0.063200
     40 H102         8.4690    -0.5950    -0.4870 h1         1 5EL       0.063200
     41 H13          5.8770     2.6930    -0.5650 hc         1 5EL       0.072700
     42 HA           7.1500    -0.1350    -2.3330 ho         1 5EL       0.448000
     43 H111         9.8550     2.4880     0.7990 h1         1 5EL       0.055700
     44 H112         9.7340     1.4460    -0.6070 h1         1 5EL       0.055700
     45 H151         7.4380     0.6220     2.7370 h1         1 5EL       0.055700
     46 H152         8.3330     2.1260     2.6340 h1         1 5EL       0.055700
     47 H121         8.0440     3.7930     0.0940 hc         1 5EL       0.052200
     48 H122         8.1810     2.9800    -1.4490 hc         1 5EL       0.052200
     49 H141         6.3920     3.1270     1.7980 hc         1 5EL       0.052200
     50 H142         5.5820     1.5790     1.6890 hc         1 5EL       0.052200
     51 H17         -2.7510    -4.3460     0.2880 ha         1 5EL       0.133000
     52 H21         -0.9900    -0.4500    -0.1400 ha         1 5EL       0.133000
     53 H18         -4.9710    -3.3750    -0.1130 ha         1 5EL       0.124500
     54 H20         -3.1760     0.4970    -0.5540 ha         1 5EL       0.124500
     55 HB          -4.8960     0.6910    -1.7810 hn         1 5EL       0.319500
     56 H231        -6.8240     1.6960    -2.3360 h1         1 5EL       0.058700
     57 H232        -7.6830     0.2050    -2.0150 h1         1 5EL       0.058700
     58 H25         -9.6350     1.1670    -0.9500 ha         1 5EL       0.121000
     59 H28         -5.7440     2.1330     0.5850 ha         1 5EL       0.121000
     60 H26        -10.5910     2.2880     1.0280 h4         1 5EL       0.017100
     61 H27         -6.8680     3.2080     2.4930 h4         1 5EL       0.017100
@<TRIPOS>BOND
     1     1     2 ar  
     2     1     6 ar  
     3     1    35 1   
     4     2     3 ar  
     5     2    36 1   
     6     3     4 ar  
     7     3    18 1   
     8     4     5 ar  
     9     4    37 1   
    10     5     6 ar  
    11     5    38 1   
    12     6     7 1   
    13     7     8 3   
    14     8     9 1   
    15     9    10 1   
    16     9    14 1   
    17     9    17 1   
    18    10    11 1   
    19    10    39 1   
    20    10    40 1   
    21    11    12 1   
    22    11    16 1   
    23    12    13 1   
    24    12    43 1   
    25    12    44 1   
    26    13    14 1   
    27    13    47 1   
    28    13    48 1   
    29    14    15 1   
    30    14    41 1   
    31    15    16 1   
    32    15    49 1   
    33    15    50 1   
    34    16    45 1   
    35    16    46 1   
    36    17    42 1   
    37    18    19 1   
    38    19    20 ar  
    39    19    24 ar  
    40    20    21 ar  
    41    20    51 1   
    42    21    22 ar  
    43    21    53 1   
    44    22    23 ar  
    45    22    25 1   
    46    23    24 ar  
    47    23    54 1   
    48    24    52 1   
    49    25    26 2   
    50    25    27 1   
    51    27    28 1   
    52    27    55 1   
    53    28    29 1   
    54    28    56 1   
    55    28    57 1   
    56    29    30 ar  
    57    29    34 ar  
    58    30    31 ar  
    59    30    58 1   
    60    31    32 ar  
    61    31    60 1   
    62    32    33 ar  
    63    33    34 ar  
    64    33    61 1   
    65    34    59 1   
@<TRIPOS>SUBSTRUCTURE
     1 5EL         1 TEMP              0 ****  ****    0 ROOT
