@<TRIPOS>MOLECULE
5EO
   57    59     1     0     0
SMALL
No Charge or Current Charge


@<TRIPOS>ATOM
      1 CAA          4.3010     5.0110    -1.5710 c3         1 5EO      -0.091100
      2 CAB          6.6390    -0.3100    -0.3640 c3         1 5EO      -0.084100
      3 OAD          2.4540    -3.5110    -2.6050 o          1 5EO      -0.547000
      4 OAE         -2.3280    -1.9860     2.0540 o          1 5EO      -0.533500
      5 OAF         -2.8710     0.3050     3.0830 o          1 5EO      -0.533500
      6 CAG         -0.9380     1.5920     1.0840 ca         1 5EO       0.048000
      7 CAH          0.2020     2.1710     0.5070 ca         1 5EO      -0.237000
      8 CAI          0.0260    -0.6210     0.7500 ca         1 5EO       0.046000
      9 CAJ          4.1150    -2.5520    -1.2220 cc         1 5EO      -0.366200
     10 CAK          3.9490     3.5250    -1.3670 c3         1 5EO      -0.082400
     11 CAL          5.8690    -1.4800     0.2800 c3         1 5EO      -0.032200
     12 CAM          2.5820     3.3160    -0.6880 c3         1 5EO       0.162600
     13 CAN         -6.1060    -0.3690     0.0530 c6         1 5EO       0.164800
     14 CAO         -4.3860    -0.2580    -1.6830 c6         1 5EO       0.164800
     15 CAP         -5.0240    -0.7700     1.1020 c6         1 5EO       0.190300
     16 CAQ         -3.2970    -0.6530    -0.6370 c6         1 5EO       0.190300
     17 NAR          3.4850    -0.7690     0.2320 nd         1 5EO      -0.631300
     18 NAS          1.9190    -1.8210    -1.2190 ns         1 5EO      -0.409400
     19 OAT          2.3810     1.9010    -0.5530 os         1 5EO      -0.323100
     20 CAU          4.4690    -1.6250    -0.2650 cd         1 5EO       0.196400
     21 CAV         -1.0250     0.1960     1.2050 ca         1 5EO      -0.359500
     22 CAW          1.2620     1.3600     0.0490 ca         1 5EO       0.253100
     23 CAX          1.1710    -0.0420     0.1690 ca         1 5EO      -0.221900
     24 CAY          2.2610    -0.8980    -0.2790 cc         1 5EO       0.570500
     25 CAZ          2.7800    -2.6970    -1.7590 c          1 5EO       0.564200
     26 NBA         -5.7360    -0.7930    -1.3310 n3         1 5EO      -0.720600
     27 NBB         -3.6730    -0.2480     0.7500 n3         1 5EO      -0.713500
     28 HAA          3.5540     5.5040    -2.2050 hc         1 5EO       0.038700
     29 HAAA         4.3410     5.5370    -0.6090 hc         1 5EO       0.038700
     30 HAAB         5.2800     5.1090    -2.0560 hc         1 5EO       0.038700
     31 HAB          7.6510    -0.2420     0.0510 hc         1 5EO       0.039033
     32 HABA         6.7200    -0.4520    -1.4490 hc         1 5EO       0.039033
     33 HABB         6.1260     0.6410    -0.1780 hc         1 5EO       0.039033
     34 HAC         -6.9040     0.6410    -2.3960 h1         1 5EO       0.034367
     35 HACA        -6.4840    -0.8180    -3.3260 h1         1 5EO       0.034367
     36 HACB        -7.7330    -0.8990    -2.0650 h1         1 5EO       0.034367
     37 HAG         -1.7520     2.2290     1.4290 ha         1 5EO       0.133000
     38 HAH          0.2390     3.2520     0.4180 ha         1 5EO       0.128000
     39 HAI         -0.0370    -1.7050     0.8540 ha         1 5EO       0.146000
     40 HAJ          4.8460    -3.2360    -1.6350 ha         1 5EO       0.213000
     41 HAK          3.9480     3.0190    -2.3400 hc         1 5EO       0.060200
     42 HAKA         4.7290     3.0510    -0.7580 hc         1 5EO       0.060200
     43 HAL          6.4330    -2.4070     0.1200 hc         1 5EO       0.057700
     44 HALA         5.8330    -1.3280     1.3650 hc         1 5EO       0.057700
     45 HAM          2.5830     3.8030     0.2960 h1         1 5EO       0.041200
     46 HAMA         1.7920     3.7650    -1.3040 h1         1 5EO       0.041200
     47 HAN         -7.0650    -0.8210     0.3470 h1         1 5EO       0.045200
     48 HANA        -6.2400     0.7220     0.0920 h1         1 5EO       0.045200
     49 HAO         -4.4200     0.8400    -1.7490 h1         1 5EO       0.045200
     50 HAOA        -4.0740    -0.6290    -2.6700 h1         1 5EO       0.045200
     51 HAP         -5.3410    -0.3890     2.0840 h1         1 5EO       0.059200
     52 HAPA        -5.0020    -1.8670     1.1760 h1         1 5EO       0.059200
     53 HAQ         -3.1440    -1.7410    -0.6870 h1         1 5EO       0.059200
     54 HAQA        -2.3550    -0.1800    -0.9470 h1         1 5EO       0.059200
     55 HNAS         0.9710    -1.8480    -1.5600 hn         1 5EO       0.328500
     56 SBC         -2.4940    -0.5330     1.9400 sy         1 5EO       1.160600
     57 CAC         -6.7680    -0.4470    -2.3320 c3         1 5EO       0.154100
@<TRIPOS>BOND
     1     1    10 1   
     2     1    28 1   
     3     1    29 1   
     4     1    30 1   
     5     2    11 1   
     6     2    31 1   
     7     2    32 1   
     8     2    33 1   
     9     3    25 2   
    10     4    56 2   
    11     5    56 2   
    12     6     7 ar  
    13     6    21 ar  
    14     6    37 1   
    15     7    22 ar  
    16     7    38 1   
    17     8    21 ar  
    18     8    23 ar  
    19     8    39 1   
    20     9    20 2   
    21     9    25 1   
    22     9    40 1   
    23    10    12 1   
    24    10    41 1   
    25    10    42 1   
    26    11    20 1   
    27    11    43 1   
    28    11    44 1   
    29    12    19 1   
    30    12    45 1   
    31    12    46 1   
    32    13    15 1   
    33    13    26 1   
    34    13    47 1   
    35    13    48 1   
    36    14    16 1   
    37    14    26 1   
    38    14    49 1   
    39    14    50 1   
    40    15    27 1   
    41    15    51 1   
    42    15    52 1   
    43    16    27 1   
    44    16    53 1   
    45    16    54 1   
    46    17    20 1   
    47    17    24 2   
    48    18    24 1   
    49    18    25 1   
    50    18    55 1   
    51    19    22 1   
    52    21    56 1   
    53    22    23 ar  
    54    23    24 1   
    55    26    57 1   
    56    27    56 1   
    57    34    57 1   
    58    35    57 1   
    59    36    57 1   
@<TRIPOS>SUBSTRUCTURE
     1 5EO         1 TEMP              0 ****  ****    0 ROOT
