@<TRIPOS>MOLECULE
5EO
   57    59     1     0     0
SMALL
bcc


@<TRIPOS>ATOM
      1 CAA          4.4830     4.3840    -2.1140 c3         1 5EO      -0.091100
      2 CAB          6.2130    -0.4540     0.0450 c3         1 5EO      -0.084100
      3 OAD          2.1510    -4.0920    -1.8310 o          1 5EO      -0.622500
      4 OAE         -2.3960    -1.2970     2.4730 o          1 5EO      -0.604300
      5 OAF         -3.0120     1.1110     2.8340 o          1 5EO      -0.604300
      6 CAG         -0.8570     1.8810     0.8880 ca         1 5EO       0.030000
      7 CAH          0.3060     2.2700     0.2480 ca         1 5EO      -0.255000
      8 CAI         -0.1340    -0.4150     0.8260 ca         1 5EO       0.028000
      9 CAJ          3.8680    -2.9970    -0.5990 cc         1 5EO      -0.316200
     10 CAK          4.0880     2.9740    -1.7000 c3         1 5EO      -0.082400
     11 CAL          5.5440    -1.6620     0.6990 c3         1 5EO      -0.032200
     12 CAM          2.7120     2.9560    -1.0700 c3         1 5EO       0.139400
     13 CAN         -4.8290    -1.3330    -1.0020 c6         1 5EO       0.164800
     14 CAO         -5.4980     0.9090    -0.5830 c6         1 5EO       0.164800
     15 CAP         -3.5290    -1.1140    -0.2510 c6         1 5EO       0.190300
     16 CAQ         -4.2100     1.1820     0.1690 c6         1 5EO       0.190300
     17 NAR          3.2670    -0.9180     0.4170 nd         1 5EO      -0.631300
     18 NAS          1.7100    -2.0990    -0.8350 ns         1 5EO      -0.476400
     19 OAT          2.4040     1.6070    -0.7270 os         1 5EO      -0.299900
     20 CAU          4.1760    -1.8980     0.1420 cd         1 5EO       0.196400
     21 CAV         -1.0820     0.5400     1.1690 ca         1 5EO      -0.359500
     22 CAW          1.2720     1.3230    -0.0970 ca         1 5EO       0.253100
     23 CAX          1.0470    -0.0310     0.2140 ca         1 5EO      -0.221900
     24 CAY          2.0820    -1.0460    -0.0770 cc         1 5EO       0.570500
     25 CAZ          2.5520    -3.1620    -1.1480 c          1 5EO       0.706700
     26 NBA         -5.2970    -0.1010    -1.5980 n3         1 5EO      -0.720600
     27 NBB         -3.7290    -0.0700     0.7530 n3         1 5EO      -0.713500
     28 HAA          3.8010     4.7870    -2.8640 hc         1 5EO       0.038700
     29 HAAA         4.4800     5.0650    -1.2610 hc         1 5EO       0.038700
     30 HAAB         5.4860     4.3940    -2.5400 hc         1 5EO       0.038700
     31 HAB          7.1740    -0.2470     0.5150 hc         1 5EO       0.039033
     32 HABA         6.3890    -0.6300    -1.0160 hc         1 5EO       0.039033
     33 HABB         5.5910     0.4360     0.1410 hc         1 5EO       0.039033
     34 HAC         -7.3390    -0.6870    -1.8130 h1         1 5EO       0.034367
     35 HACA        -6.7870     0.6250    -2.8680 h1         1 5EO       0.034367
     36 HACB        -6.2780    -1.0320    -3.1870 h1         1 5EO       0.034367
     37 HAG         -1.5790     2.6380     1.1640 ha         1 5EO       0.151000
     38 HAH          0.4510     3.3180     0.0290 ha         1 5EO       0.146000
     39 HAI         -0.2940    -1.4580     1.0680 ha         1 5EO       0.164000
     40 HAJ          4.6060    -3.7610    -0.7960 ha         1 5EO       0.163000
     41 HAK          4.0990     2.3120    -2.5690 hc         1 5EO       0.060200
     42 HAKA         4.8140     2.5770    -0.9870 hc         1 5EO       0.060200
     43 HAL          6.1610    -2.5520     0.5690 hc         1 5EO       0.057700
     44 HALA         5.4520    -1.4890     1.7750 hc         1 5EO       0.057700
     45 HAM          2.6940     3.5840    -0.1730 h1         1 5EO       0.041200
     46 HAMA         1.9620     3.3450    -1.7680 h1         1 5EO       0.041200
     47 HAN         -4.6460    -2.0680    -1.7890 h1         1 5EO       0.045200
     48 HANA        -5.5730    -1.7720    -0.3160 h1         1 5EO       0.045200
     49 HAO         -6.2840     0.6290     0.1390 h1         1 5EO       0.045200
     50 HAOA        -5.8160     1.8400    -1.0590 h1         1 5EO       0.045200
     51 HAP         -3.2440    -2.0460     0.2330 h1         1 5EO       0.059200
     52 HAPA        -2.7380    -0.8360    -0.9590 h1         1 5EO       0.059200
     53 HAQ         -3.4680     1.6110    -0.5160 h1         1 5EO       0.059200
     54 HAQA        -4.4060     1.9060     0.9570 h1         1 5EO       0.059200
     55 HNAS         0.7740    -2.1240    -1.2220 hn         1 5EO       0.328500
     56 SBC         -2.5890     0.0430     1.9440 sy         1 5EO       1.302200
     57 CAC         -6.4850    -0.3100    -2.3950 c3         1 5EO       0.154100
@<TRIPOS>BOND
     1     1    10 1   
     2     1    28 1   
     3     1    29 1   
     4     1    30 1   
     5     2    11 1   
     6     2    31 1   
     7     2    32 1   
     8     2    33 1   
     9     3    25 2   
    10     4    56 2   
    11     5    56 2   
    12     6     7 ar  
    13     6    21 ar  
    14     6    37 1   
    15     7    22 ar  
    16     7    38 1   
    17     8    21 ar  
    18     8    23 ar  
    19     8    39 1   
    20     9    20 2   
    21     9    25 1   
    22     9    40 1   
    23    10    12 1   
    24    10    41 1   
    25    10    42 1   
    26    11    20 1   
    27    11    43 1   
    28    11    44 1   
    29    12    19 1   
    30    12    45 1   
    31    12    46 1   
    32    13    15 1   
    33    13    26 1   
    34    13    47 1   
    35    13    48 1   
    36    14    16 1   
    37    14    26 1   
    38    14    49 1   
    39    14    50 1   
    40    15    27 1   
    41    15    51 1   
    42    15    52 1   
    43    16    27 1   
    44    16    53 1   
    45    16    54 1   
    46    17    20 1   
    47    17    24 2   
    48    18    24 1   
    49    18    25 1   
    50    18    55 1   
    51    19    22 1   
    52    21    56 1   
    53    22    23 ar  
    54    23    24 1   
    55    26    57 1   
    56    27    56 1   
    57    34    57 1   
    58    35    57 1   
    59    36    57 1   
@<TRIPOS>SUBSTRUCTURE
     1 5EO         1 TEMP              0 ****  ****    0 ROOT
