@<TRIPOS>MOLECULE
5EQ
   25    26     1     0     0
SMALL
abcg2


@<TRIPOS>ATOM
      1 C10         33.9490    77.2550    63.4250 ca         1 5EQ      -0.037000
      2 C15         30.5480    76.5810    61.0620 cc         1 5EQ      -0.223200
      3 C17         32.6220    78.0810    61.5610 ca         1 5EQ      -0.014000
      4 O01         38.4150    81.9580    63.6600 o          1 5EQ      -0.687000
      5 C02         37.5580    81.1290    64.0350 c          1 5EQ       0.704200
      6 O03         37.4650    80.5630    65.1490 o          1 5EQ      -0.687000
      7 C04         36.4830    80.7480    62.9990 ce         1 5EQ       0.162900
      8 O05         36.4520    81.4880    61.8990 oh         1 5EQ      -0.528100
      9 C06         35.6220    79.7040    63.1900 cf         1 5EQ      -0.529200
     10 O08         34.5330    80.0460    61.1460 o          1 5EQ      -0.668100
     11 C09         33.7230    78.2140    62.4070 ca         1 5EQ      -0.161600
     12 C11         33.1080    76.1750    63.6050 ca         1 5EQ      -0.163000
     13 C12         32.0070    76.0590    62.7550 ca         1 5EQ      -0.032200
     14 N13         31.0170    75.1190    62.7000 na         1 5EQ      -0.238700
     15 C14         30.1400    75.4320    61.6810 cd         1 5EQ      -0.188100
     16 C16         31.7470    77.0090    61.7260 ca         1 5EQ      -0.124800
     17 H1          34.8100    77.3500    64.0700 ha         1 5EQ       0.134000
     18 H2          30.0580    77.0640    60.2320 ha         1 5EQ       0.199000
     19 H3          32.4560    78.8170    60.7860 ha         1 5EQ       0.134000
     20 H6          35.6940    81.1050    61.3510 ho         1 5EQ       0.497000
     21 H7          35.6950    79.1670    64.1180 ha         1 5EQ       0.210000
     22 H9          33.2980    75.4430    64.3800 ha         1 5EQ       0.107000
     23 H10         30.9370    74.3180    63.3050 hn         1 5EQ       0.340000
     24 H11         29.2890    74.8010    61.4840 h4         1 5EQ       0.201000
     25 C07         34.6350    79.3620    62.1990 c          1 5EQ       0.593900
@<TRIPOS>BOND
     1     1    11 ar  
     2     1    12 ar  
     3     1    17 1   
     4     2    15 2   
     5     2    16 1   
     6     2    18 1   
     7     3    11 ar  
     8     3    16 ar  
     9     3    19 1   
    10     4     5 1   
    11     5     6 1   
    12     5     7 1   
    13     7     8 1   
    14     7     9 2   
    15     8    20 1   
    16     9    21 1   
    17     9    25 1   
    18    10    25 2   
    19    11    25 1   
    20    12    13 ar  
    21    12    22 1   
    22    13    14 1   
    23    13    16 ar  
    24    14    15 1   
    25    14    23 1   
    26    15    24 1   
@<TRIPOS>SUBSTRUCTURE
     1 5EQ         1 TEMP              0 ****  ****    0 ROOT
