@<TRIPOS>MOLECULE
5EQ
   25    26     1     0     0
SMALL
No Charge or Current Charge


@<TRIPOS>ATOM
      1 C10         34.0530    77.1570    63.2740 ca         1 5EQ      -0.037000
      2 C15         30.4680    76.6430    61.1780 cc         1 5EQ      -0.223200
      3 C17         32.5800    78.0660    61.5410 ca         1 5EQ      -0.014000
      4 O01         38.2500    82.1880    63.9790 o          1 5EQ      -0.687000
      5 C02         37.4500    81.2800    64.1870 c          1 5EQ       0.704200
      6 O03         37.3480    80.7420    65.2850 o          1 5EQ      -0.687000
      7 C04         36.5370    80.7940    63.0320 ce         1 5EQ       0.162900
      8 O05         36.6680    81.4060    61.8230 oh         1 5EQ      -0.528100
      9 C06         35.6090    79.7930    63.1430 cf         1 5EQ      -0.529200
     10 O08         34.7560    79.8640    60.9670 o          1 5EQ      -0.668100
     11 C09         33.7690    78.1610    62.3060 ca         1 5EQ      -0.161600
     12 C11         33.1580    76.0860    63.4870 ca         1 5EQ      -0.163000
     13 C12         31.9900    76.0340    62.7190 ca         1 5EQ      -0.032200
     14 N13         30.9850    75.0810    62.7600 na         1 5EQ      -0.238700
     15 C14         30.0320    75.4730    61.7870 cd         1 5EQ      -0.188100
     16 C16         31.7180    76.9880    61.7830 ca         1 5EQ      -0.124800
     17 H1          34.9740    77.1880    63.8530 ha         1 5EQ       0.134000
     18 H2          29.9460    77.1830    60.3900 ha         1 5EQ       0.199000
     19 H3          32.3330    78.8100    60.7860 ha         1 5EQ       0.134000
     20 H6          35.9780    80.9410    61.2760 ho         1 5EQ       0.497000
     21 H7          35.4990    79.3170    64.1140 ha         1 5EQ       0.210000
     22 H9          33.3770    75.3180    64.2250 ha         1 5EQ       0.107000
     23 H10         30.9430    74.2670    63.3660 hn         1 5EQ       0.340000
     24 H11         29.1260    74.8970    61.6030 h4         1 5EQ       0.201000
     25 C07         34.7130    79.3100    62.0600 c          1 5EQ       0.593900
@<TRIPOS>BOND
     1     1    11 ar  
     2     1    12 ar  
     3     1    17 1   
     4     2    15 2   
     5     2    16 1   
     6     2    18 1   
     7     3    11 ar  
     8     3    16 ar  
     9     3    19 1   
    10     4     5 1   
    11     5     6 1   
    12     5     7 1   
    13     7     8 1   
    14     7     9 2   
    15     8    20 1   
    16     9    21 1   
    17     9    25 1   
    18    10    25 2   
    19    11    25 1   
    20    12    13 ar  
    21    12    22 1   
    22    13    14 1   
    23    13    16 ar  
    24    14    15 1   
    25    14    23 1   
    26    15    24 1   
@<TRIPOS>SUBSTRUCTURE
     1 5EQ         1 TEMP              0 ****  ****    0 ROOT
