@<TRIPOS>MOLECULE
5ER
   25    26     1     0     0
SMALL
abcg2


@<TRIPOS>ATOM
      1 C10         34.2020    76.5510    63.6260 cc         1 5ER      -0.101100
      2 C13         31.3610    75.1560    61.9080 ca         1 5ER      -0.135000
      3 C15         31.3280    76.7250    60.0520 ca         1 5ER      -0.153000
      4 C17         33.0180    76.9740    61.7370 ca         1 5ER      -0.051800
      5 O01         38.0430    79.6970    65.0670 o          1 5ER      -0.689500
      6 C02         38.0780    80.2530    63.9450 c          1 5ER       0.704200
      7 O03         38.9290    81.0620    63.5150 o          1 5ER      -0.689500
      8 C04         36.9360    79.8900    62.9780 ce         1 5ER       0.160900
      9 O05         36.8490    80.6390    61.8810 oh         1 5ER      -0.531100
     10 C06         36.0740    78.8610    63.2130 cf         1 5ER      -0.527200
     11 O08         34.8700    79.2130    61.2230 o          1 5ER      -0.669100
     12 C09         34.1380    77.4160    62.5430 cd         1 5ER      -0.193400
     13 N11         33.2170    75.6270    63.5360 na         1 5ER      -0.234700
     14 C12         32.4650    75.8490    62.3960 ca         1 5ER      -0.069200
     15 C14         30.7990    75.6110    60.7240 ca         1 5ER      -0.107000
     16 C16         32.4290    77.4110    60.5440 ca         1 5ER      -0.043000
     17 H1          34.8910    76.5320    64.4550 h4         1 5ER       0.229000
     18 H2          30.9590    74.2990    62.4330 ha         1 5ER       0.102000
     19 H3          30.8640    77.0550    59.1310 ha         1 5ER       0.102000
     20 H5          36.0620    80.2640    61.3740 ho         1 5ER       0.495000
     21 H6          36.1980    78.2990    64.1230 ha         1 5ER       0.203000
     22 H7          33.0570    74.8900    64.2050 hn         1 5ER       0.342000
     23 H8          29.9390    75.0990    60.3120 ha         1 5ER       0.097000
     24 H9          32.8290    78.2670    60.0220 ha         1 5ER       0.142000
     25 C07         35.0240    78.5320    62.2760 c          1 5ER       0.617500
@<TRIPOS>BOND
     1     1    12 2   
     2     1    13 1   
     3     1    17 1   
     4     2    14 ar  
     5     2    15 ar  
     6     2    18 1   
     7     3    15 ar  
     8     3    16 ar  
     9     3    19 1   
    10     4    12 1   
    11     4    14 ar  
    12     4    16 ar  
    13     5     6 1   
    14     6     7 1   
    15     6     8 1   
    16     8     9 1   
    17     8    10 2   
    18     9    20 1   
    19    10    21 1   
    20    10    25 1   
    21    11    25 2   
    22    12    25 1   
    23    13    14 1   
    24    13    22 1   
    25    15    23 1   
    26    16    24 1   
@<TRIPOS>SUBSTRUCTURE
     1 5ER         1 TEMP              0 ****  ****    0 ROOT
