@<TRIPOS>MOLECULE
5ER
   25    26     1     0     0
SMALL
No Charge or Current Charge


@<TRIPOS>ATOM
      1 C10         34.2270    76.5870    63.6720 cc         1 5ER      -0.101100
      2 C13         31.3500    75.1540    61.9240 ca         1 5ER      -0.135000
      3 C15         31.3070    76.6910    60.0140 ca         1 5ER      -0.153000
      4 C17         32.9760    76.9370    61.7370 ca         1 5ER      -0.051800
      5 O01         38.2590    79.5410    64.9790 o          1 5ER      -0.689500
      6 C02         38.1300    80.2400    63.9780 c          1 5ER       0.704200
      7 O03         38.8790    81.1840    63.7440 o          1 5ER      -0.689500
      8 C04         36.9840    79.9150    62.9850 ce         1 5ER       0.160900
      9 O05         36.8620    80.7050    61.8830 oh         1 5ER      -0.531100
     10 C06         36.0890    78.8900    63.1400 cf         1 5ER      -0.527200
     11 O08         34.8290    79.2380    61.1970 o          1 5ER      -0.669100
     12 C09         34.0980    77.3950    62.5400 cd         1 5ER      -0.193400
     13 N11         33.1880    75.6390    63.5600 na         1 5ER      -0.234700
     14 C12         32.4570    75.8630    62.4070 ca         1 5ER      -0.069200
     15 C14         30.7720    75.5800    60.7090 ca         1 5ER      -0.107000
     16 C16         32.4250    77.3860    60.5260 ca         1 5ER      -0.043000
     17 H1          34.9230    76.5950    64.5050 h4         1 5ER       0.229000
     18 H2          30.9470    74.3020    62.4660 ha         1 5ER       0.102000
     19 H3          30.8540    77.0130    59.0790 ha         1 5ER       0.102000
     20 H5          36.0780    80.3030    61.4210 ho         1 5ER       0.495000
     21 H6          36.1990    78.2700    64.0230 ha         1 5ER       0.203000
     22 H7          32.9990    74.8980    64.2280 hn         1 5ER       0.342000
     23 H8          29.9110    75.0520    60.3060 ha         1 5ER       0.097000
     24 H9          32.8360    78.2390    59.9930 ha         1 5ER       0.142000
     25 C07         34.9800    78.5560    62.2040 c          1 5ER       0.617500
@<TRIPOS>BOND
     1     1    12 2   
     2     1    13 1   
     3     1    17 1   
     4     2    14 ar  
     5     2    15 ar  
     6     2    18 1   
     7     3    15 ar  
     8     3    16 ar  
     9     3    19 1   
    10     4    12 1   
    11     4    14 ar  
    12     4    16 ar  
    13     5     6 1   
    14     6     7 1   
    15     6     8 1   
    16     8     9 1   
    17     8    10 2   
    18     9    20 1   
    19    10    21 1   
    20    10    25 1   
    21    11    25 2   
    22    12    25 1   
    23    13    14 1   
    24    13    22 1   
    25    15    23 1   
    26    16    24 1   
@<TRIPOS>SUBSTRUCTURE
     1 5ER         1 TEMP              0 ****  ****    0 ROOT
