@<TRIPOS>MOLECULE
5ES
   50    53     1     0     0
SMALL
No Charge or Current Charge


@<TRIPOS>ATOM
      1 O01          5.5340     4.4990    -0.0440 oh         1 5ES      -0.532600
      2 C02          4.6750     3.4440     0.0340 ca         1 5ES       0.143600
      3 C03          3.8710     3.2670     1.1700 ca         1 5ES      -0.180000
      4 C04          2.9870     2.1760     1.2420 ca         1 5ES      -0.055500
      5 C05          4.5980     2.5330    -1.0280 ca         1 5ES      -0.180000
      6 C06          3.7160     1.4410    -0.9580 ca         1 5ES      -0.055500
      7 C07          2.9010     1.2520     0.1790 ca         1 5ES      -0.097300
      8 C08          1.9600     0.0920     0.2610 ce         1 5ES       0.023600
      9 C09          2.5210    -1.1750    -0.2960 ca         1 5ES      -0.097300
     10 C10          1.8160    -1.8930    -1.2830 ca         1 5ES      -0.055500
     11 C11          2.3480    -3.0820    -1.8120 ca         1 5ES      -0.180000
     12 C12          3.5900    -3.5570    -1.3610 ca         1 5ES       0.143600
     13 O13          4.1120    -4.7080    -1.8690 oh         1 5ES      -0.532600
     14 C14          4.3000    -2.8440    -0.3850 ca         1 5ES      -0.180000
     15 C15          3.7700    -1.6550     0.1460 ca         1 5ES      -0.055500
     16 C16          0.6900     0.2210     0.7510 cf         1 5ES      -0.160200
     17 C17         -0.3740    -0.7800     0.9700 ca         1 5ES      -0.016800
     18 C18         -0.0820    -2.1270     1.2680 ca         1 5ES      -0.128000
     19 C19         -1.1190    -3.0460     1.4970 ca         1 5ES      -0.077000
     20 C20         -2.4570    -2.6250     1.4330 ca         1 5ES      -0.172000
     21 C21         -2.7640    -1.2880     1.1370 ca         1 5ES       0.319000
     22 N22         -4.1040    -0.8970     1.1020 nu         1 5ES      -0.998000
     23 C23         -4.7840     0.1510     0.4750 ca         1 5ES       0.306000
     24 C24         -4.2810     0.7670    -0.6890 ca         1 5ES      -0.141000
     25 C25         -4.9950     1.8100    -1.3080 ca         1 5ES      -0.116500
     26 C26         -6.2210     2.2330    -0.7690 ca         1 5ES       0.133000
     27 F27         -6.9080     3.2320    -1.3620 f          1 5ES      -0.181000
     28 C28         -6.7390     1.6140     0.3800 ca         1 5ES      -0.116500
     29 C29         -6.0210     0.5700     0.9960 ca         1 5ES      -0.141000
     30 C30         -1.7200    -0.3690     0.9280 ca         1 5ES      -0.163000
     31 H1           5.4540     5.0250     0.7800 ho         1 5ES       0.465000
     32 H2           3.9260     3.9670     2.0000 ha         1 5ES       0.122000
     33 H3           2.3770     2.0430     2.1330 ha         1 5ES       0.119750
     34 H4           5.2200     2.6710    -1.9080 ha         1 5ES       0.122000
     35 H5           3.6620     0.7460    -1.7930 ha         1 5ES       0.119750
     36 H6           0.8550    -1.5270    -1.6380 ha         1 5ES       0.119750
     37 H7           1.7900    -3.6270    -2.5700 ha         1 5ES       0.122000
     38 H8           3.4850    -5.0650    -2.5330 ho         1 5ES       0.465000
     39 H9           5.2630    -3.2110    -0.0370 ha         1 5ES       0.122000
     40 H10          4.3270    -1.1080     0.9050 ha         1 5ES       0.119750
     41 H11          0.3920     1.2250     1.0530 ha         1 5ES       0.179000
     42 H12          0.9470    -2.4650     1.3480 ha         1 5ES       0.125000
     43 H13         -0.8840    -4.0820     1.7310 ha         1 5ES       0.113000
     44 H14         -3.2540    -3.3410     1.6110 ha         1 5ES       0.112000
     45 H15         -4.7150    -1.5090     1.6440 hn         1 5ES       0.493000
     46 H16         -3.3470     0.4290    -1.1280 ha         1 5ES       0.122000
     47 H17         -4.6050     2.2850    -2.2050 ha         1 5ES       0.131000
     48 H18         -7.6910     1.9410     0.7890 ha         1 5ES       0.131000
     49 H19         -6.4260     0.0950     1.8860 ha         1 5ES       0.122000
     50 H20         -1.9520     0.6740     0.7380 ha         1 5ES       0.121000
@<TRIPOS>BOND
     1     1     2 1   
     2     1    31 1   
     3     2     3 ar  
     4     2     5 ar  
     5     3     4 ar  
     6     3    32 1   
     7     4     7 ar  
     8     4    33 1   
     9     5     6 ar  
    10     5    34 1   
    11     6     7 ar  
    12     6    35 1   
    13     7     8 1   
    14     8     9 1   
    15     8    16 2   
    16     9    10 ar  
    17     9    15 ar  
    18    10    11 ar  
    19    10    36 1   
    20    11    12 ar  
    21    11    37 1   
    22    12    13 1   
    23    12    14 ar  
    24    13    38 1   
    25    14    15 ar  
    26    14    39 1   
    27    15    40 1   
    28    16    17 1   
    29    16    41 1   
    30    17    18 ar  
    31    17    30 ar  
    32    18    19 ar  
    33    18    42 1   
    34    19    20 ar  
    35    19    43 1   
    36    20    21 ar  
    37    20    44 1   
    38    21    22 1   
    39    21    30 ar  
    40    22    23 1   
    41    22    45 1   
    42    23    24 ar  
    43    23    29 ar  
    44    24    25 ar  
    45    24    46 1   
    46    25    26 ar  
    47    25    47 1   
    48    26    27 1   
    49    26    28 ar  
    50    28    29 ar  
    51    28    48 1   
    52    29    49 1   
    53    30    50 1   
@<TRIPOS>SUBSTRUCTURE
     1 5ES         1 TEMP              0 ****  ****    0 ROOT
