@<TRIPOS>MOLECULE
5ES
   50    53     1     0     0
SMALL
abcg2


@<TRIPOS>ATOM
      1 O01          5.3980     4.5290    -0.0140 oh         1 5ES      -0.532600
      2 C02          4.5480     3.4900     0.0900 ca         1 5ES       0.143600
      3 C03          3.6830     3.3270     1.1690 ca         1 5ES      -0.180000
      4 C04          2.8370     2.2310     1.2200 ca         1 5ES      -0.055500
      5 C05          4.5530     2.5390    -0.9290 ca         1 5ES      -0.180000
      6 C06          3.7060     1.4480    -0.8610 ca         1 5ES      -0.055500
      7 C07          2.8200     1.2720     0.2060 ca         1 5ES      -0.097300
      8 C08          1.9030     0.1140     0.2480 ce         1 5ES       0.023600
      9 C09          2.4080    -1.1480    -0.3380 ca         1 5ES      -0.097300
     10 C10          1.7050    -1.8080    -1.3420 ca         1 5ES      -0.055500
     11 C11          2.1760    -2.9890    -1.8940 ca         1 5ES      -0.180000
     12 C12          3.3730    -3.5390    -1.4420 ca         1 5ES       0.143600
     13 O13          3.8790    -4.6860    -1.9350 oh         1 5ES      -0.532600
     14 C14          4.0950    -2.8850    -0.4450 ca         1 5ES      -0.180000
     15 C15          3.6160    -1.7000     0.0870 ca         1 5ES      -0.055500
     16 C16          0.6660     0.2450     0.7620 cf         1 5ES      -0.160200
     17 C17         -0.3390    -0.7970     1.0010 ca         1 5ES      -0.016800
     18 C18         -0.0140    -2.1030     1.3770 ca         1 5ES      -0.128000
     19 C19         -1.0280    -3.0110     1.6370 ca         1 5ES      -0.077000
     20 C20         -2.3610    -2.6560     1.5110 ca         1 5ES      -0.172000
     21 C21         -2.7070    -1.3510     1.1450 ca         1 5ES       0.319000
     22 N22         -4.0490    -1.0200     1.0750 nu         1 5ES      -0.998000
     23 C23         -4.6340     0.0710     0.4470 ca         1 5ES       0.306000
     24 C24         -4.1220     0.6290    -0.7280 ca         1 5ES      -0.141000
     25 C25         -4.7550     1.7010    -1.3380 ca         1 5ES      -0.116500
     26 C26         -5.9190     2.2010    -0.7890 ca         1 5ES       0.133000
     27 F27         -6.5360     3.2390    -1.3850 f          1 5ES      -0.181000
     28 C28         -6.4660     1.6560     0.3560 ca         1 5ES      -0.116500
     29 C29         -5.8160     0.6010     0.9740 ca         1 5ES      -0.141000
     30 C30         -1.6830    -0.4300     0.9150 ca         1 5ES      -0.163000
     31 H1           5.3200     5.1070     0.7530 ho         1 5ES       0.465000
     32 H2           3.6780     4.0460     1.9800 ha         1 5ES       0.122000
     33 H3           2.1950     2.1130     2.0840 ha         1 5ES       0.119750
     34 H4           5.2230     2.6580    -1.7720 ha         1 5ES       0.122000
     35 H5           3.7290     0.7250    -1.6670 ha         1 5ES       0.119750
     36 H6           0.7730    -1.3930    -1.7030 ha         1 5ES       0.119750
     37 H7           1.6110    -3.4780    -2.6790 ha         1 5ES       0.122000
     38 H8           3.2980    -5.0470    -2.6130 ho         1 5ES       0.465000
     39 H9           5.0290    -3.3050    -0.0940 ha         1 5ES       0.122000
     40 H10          4.1910    -1.2020     0.8590 ha         1 5ES       0.119750
     41 H11          0.3440     1.2460     1.0330 ha         1 5ES       0.179000
     42 H12          1.0180    -2.4030     1.4860 ha         1 5ES       0.125000
     43 H13         -0.7770    -4.0190     1.9410 ha         1 5ES       0.113000
     44 H14         -3.1390    -3.3850     1.7030 ha         1 5ES       0.112000
     45 H15         -4.6690    -1.5920     1.6260 hn         1 5ES       0.493000
     46 H16         -3.2330     0.2220    -1.1890 ha         1 5ES       0.122000
     47 H17         -4.3490     2.1270    -2.2460 ha         1 5ES       0.131000
     48 H18         -7.3820     2.0550     0.7730 ha         1 5ES       0.131000
     49 H19         -6.2320     0.1810     1.8820 ha         1 5ES       0.122000
     50 H20         -1.9230     0.5980     0.6730 ha         1 5ES       0.121000
@<TRIPOS>BOND
     1     1     2 1   
     2     1    31 1   
     3     2     3 ar  
     4     2     5 ar  
     5     3     4 ar  
     6     3    32 1   
     7     4     7 ar  
     8     4    33 1   
     9     5     6 ar  
    10     5    34 1   
    11     6     7 ar  
    12     6    35 1   
    13     7     8 1   
    14     8     9 1   
    15     8    16 2   
    16     9    10 ar  
    17     9    15 ar  
    18    10    11 ar  
    19    10    36 1   
    20    11    12 ar  
    21    11    37 1   
    22    12    13 1   
    23    12    14 ar  
    24    13    38 1   
    25    14    15 ar  
    26    14    39 1   
    27    15    40 1   
    28    16    17 1   
    29    16    41 1   
    30    17    18 ar  
    31    17    30 ar  
    32    18    19 ar  
    33    18    42 1   
    34    19    20 ar  
    35    19    43 1   
    36    20    21 ar  
    37    20    44 1   
    38    21    22 1   
    39    21    30 ar  
    40    22    23 1   
    41    22    45 1   
    42    23    24 ar  
    43    23    29 ar  
    44    24    25 ar  
    45    24    46 1   
    46    25    26 ar  
    47    25    47 1   
    48    26    27 1   
    49    26    28 ar  
    50    28    29 ar  
    51    28    48 1   
    52    29    49 1   
    53    30    50 1   
@<TRIPOS>SUBSTRUCTURE
     1 5ES         1 TEMP              0 ****  ****    0 ROOT
