@<TRIPOS>MOLECULE
5ET
   31    33     1     0     0
SMALL
bcc


@<TRIPOS>ATOM
      1 C01         -5.2650     1.0620     0.2560 ca         1 5ET       0.154600
      2 C02         -4.2550     1.8970     0.7290 ca         1 5ET      -0.194000
      3 C03         -2.9660     1.4160     0.8300 ca         1 5ET      -0.072000
      4 C04         -2.6170     0.1100     0.4700 ca         1 5ET      -0.039500
      5 C05         -3.6500    -0.6970    -0.0110 ca         1 5ET       0.079900
      6 C06         -4.9550    -0.2420    -0.1170 ca         1 5ET      -0.195000
      7 CL1         -3.3370    -2.3150    -0.5410 cl         1 5ET      -0.098400
      8 O01         -6.5090     1.5570     0.1780 oh         1 5ET      -0.487600
      9 C07         -1.2300    -0.3380     0.5970 cc         1 5ET      -0.014100
     10 S01          0.0410     0.6470    -0.0320 ss         1 5ET      -0.045800
     11 C08          1.2630    -0.4540     0.4910 cc         1 5ET      -0.014100
     12 C09          0.6910    -1.5300     1.1160 cd         1 5ET      -0.138000
     13 C10         -0.7210    -1.4680     1.1720 cd         1 5ET      -0.138000
     14 C11          2.6980    -0.1900     0.3690 ca         1 5ET      -0.039500
     15 C12          3.5280    -0.4920     1.4530 ca         1 5ET      -0.072000
     16 C13          4.8970    -0.3160     1.4150 ca         1 5ET      -0.194000
     17 C14          5.4950     0.1960     0.2660 ca         1 5ET       0.154600
     18 C15          4.6990     0.5150    -0.8310 ca         1 5ET      -0.195000
     19 C16          3.3320     0.3180    -0.7680 ca         1 5ET       0.079900
     20 CL2          2.4170     0.7000    -2.1900 cl         1 5ET      -0.098400
     21 O02          6.8160     0.4040     0.1570 oh         1 5ET      -0.487600
     22 H1          -4.4850     2.9120     1.0240 ha         1 5ET       0.145000
     23 H2          -2.1960     2.0720     1.2180 ha         1 5ET       0.141500
     24 H3          -5.7260    -0.9020    -0.4970 ha         1 5ET       0.156000
     25 H4          -7.1220     0.8950    -0.1630 ho         1 5ET       0.430500
     26 H5           1.2680    -2.3480     1.5240 ha         1 5ET       0.155000
     27 H6          -1.3330    -2.2310     1.6300 ha         1 5ET       0.155000
     28 H7           3.0780    -0.8670     2.3620 ha         1 5ET       0.141500
     29 H8           5.4950    -0.5660     2.2840 ha         1 5ET       0.145000
     30 H9           5.1540     0.9070    -1.7300 ha         1 5ET       0.156000
     31 H10          7.2690     0.1280     0.9610 ho         1 5ET       0.430500
@<TRIPOS>BOND
     1     1     2 ar  
     2     1     6 ar  
     3     1     8 1   
     4     2     3 ar  
     5     2    22 1   
     6     3     4 ar  
     7     3    23 1   
     8     4     5 ar  
     9     4     9 1   
    10     5     6 ar  
    11     5     7 1   
    12     6    24 1   
    13     8    25 1   
    14     9    10 1   
    15     9    13 2   
    16    10    11 1   
    17    11    12 2   
    18    11    14 1   
    19    12    13 1   
    20    12    26 1   
    21    13    27 1   
    22    14    15 ar  
    23    14    19 ar  
    24    15    16 ar  
    25    15    28 1   
    26    16    17 ar  
    27    16    29 1   
    28    17    18 ar  
    29    17    21 1   
    30    18    19 ar  
    31    18    30 1   
    32    19    20 1   
    33    21    31 1   
@<TRIPOS>SUBSTRUCTURE
     1 5ET         1 TEMP              0 ****  ****    0 ROOT
