@<TRIPOS>MOLECULE
5ET
   31    33     1     0     0
SMALL
No Charge or Current Charge


@<TRIPOS>ATOM
      1 C01         -5.3520     0.9510     0.3980 ca         1 5ET       0.154600
      2 C02         -4.4060     1.8030     0.9810 ca         1 5ET      -0.176000
      3 C03         -3.0450     1.4500     0.9860 ca         1 5ET      -0.054000
      4 C04         -2.6200     0.2360     0.4120 ca         1 5ET      -0.039500
      5 C05         -3.5830    -0.6150    -0.1840 ca         1 5ET       0.171500
      6 C06         -4.9420    -0.2560    -0.1870 ca         1 5ET      -0.177000
      7 Cl1         -3.1190    -2.1220    -0.9770 cl         1 5ET      -0.190000
      8 O01         -6.6680     1.3070     0.3990 oh         1 5ET      -0.526600
      9 C07         -1.1960    -0.0950     0.4380 cc         1 5ET      -0.159000
     10 S01          0.1120     0.9480    -0.1110 ss         1 5ET       0.244000
     11 C08          1.2800    -0.2610     0.4220 cc         1 5ET      -0.159000
     12 C09          0.6810    -1.3420     1.0230 cd         1 5ET      -0.120000
     13 C10         -0.7390    -1.2440     1.0370 cd         1 5ET      -0.120000
     14 C11          2.7390    -0.1560     0.3470 ca         1 5ET      -0.039500
     15 C12          3.5010    -0.3320     1.5210 ca         1 5ET      -0.054000
     16 C13          4.9030    -0.2280     1.4860 ca         1 5ET      -0.176000
     17 C14          5.5550     0.0500     0.2760 ca         1 5ET       0.154600
     18 C15          4.8110     0.2210    -0.8970 ca         1 5ET      -0.177000
     19 C16          3.4100     0.1200    -0.8680 ca         1 5ET       0.171500
     20 Cl2          2.5330     0.3060    -2.3880 cl         1 5ET      -0.190000
     21 O02          6.9130     0.1510     0.2320 oh         1 5ET      -0.526600
     22 H1          -4.7240     2.7400     1.4320 ha         1 5ET       0.127000
     23 H2          -2.3190     2.1170     1.4460 ha         1 5ET       0.123500
     24 H3          -5.6670    -0.9190    -0.6520 ha         1 5ET       0.138000
     25 H4          -7.1840     0.6010    -0.0470 ho         1 5ET       0.469500
     26 H5           1.2270    -2.1820     1.4440 ha         1 5ET       0.137000
     27 H6          -1.3860    -1.9950     1.4810 ha         1 5ET       0.137000
     28 H7           3.0030    -0.5400     2.4650 ha         1 5ET       0.123500
     29 H8           5.4720    -0.3640     2.4030 ha         1 5ET       0.127000
     30 H9           5.3180     0.4280    -1.8350 ha         1 5ET       0.138000
     31 H10          7.2660     0.0020     1.1360 ho         1 5ET       0.469500
@<TRIPOS>BOND
     1     1     2 ar  
     2     1     6 ar  
     3     1     8 1   
     4     2     3 ar  
     5     2    22 1   
     6     3     4 ar  
     7     3    23 1   
     8     4     5 ar  
     9     4     9 1   
    10     5     6 ar  
    11     5     7 1   
    12     6    24 1   
    13     8    25 1   
    14     9    10 1   
    15     9    13 2   
    16    10    11 1   
    17    11    12 2   
    18    11    14 1   
    19    12    13 1   
    20    12    26 1   
    21    13    27 1   
    22    14    15 ar  
    23    14    19 ar  
    24    15    16 ar  
    25    15    28 1   
    26    16    17 ar  
    27    16    29 1   
    28    17    18 ar  
    29    17    21 1   
    30    18    19 ar  
    31    18    30 1   
    32    19    20 1   
    33    21    31 1   
@<TRIPOS>SUBSTRUCTURE
     1 5ET         1 TEMP              0 ****  ****    0 ROOT
