@<TRIPOS>MOLECULE
5EU
   34    36     1     0     0
SMALL
abcg2


@<TRIPOS>ATOM
      1 O01          6.6060     1.3200     0.6240 oh         1 5EU      -0.527100
      2 C02          5.3290     0.9710     0.4040 ca         1 5EU       0.154100
      3 C03          4.3230     1.8970     0.1400 ca         1 5EU      -0.206000
      4 C04          3.0330     1.4570    -0.0860 ca         1 5EU      -0.052000
      5 C05          2.6840     0.1040    -0.0550 ca         1 5EU      -0.042000
      6 C06          1.3000    -0.3000    -0.3060 cc         1 5EU      -0.154000
      7 C07          0.8090    -1.2320    -1.1730 cd         1 5EU      -0.112000
      8 C08         -0.6120    -1.3160    -1.1860 cd         1 5EU      -0.080300
      9 C09         -1.3620    -2.2540    -2.0770 c3         1 5EU      -0.029800
     10 C10         -1.1860    -0.4280    -0.3170 cc         1 5EU      -0.161000
     11 C11         -2.6130    -0.2460    -0.0270 ca         1 5EU      -0.045000
     12 C12         -3.3170     0.9130    -0.3560 ca         1 5EU       0.169000
     13 CL1         -2.5000     2.2210    -1.1440 cl         1 5EU      -0.190000
     14 C14         -4.6670     1.0590    -0.0970 ca         1 5EU      -0.147000
     15 C15         -5.3640     0.0170     0.5100 ca         1 5EU       0.155100
     16 O16         -6.6740     0.2020     0.7400 oh         1 5EU      -0.527100
     17 C17         -4.6920    -1.1550     0.8490 ca         1 5EU      -0.210000
     18 C18         -3.3400    -1.2680     0.5820 ca         1 5EU      -0.043000
     19 S19          0.0100     0.4890     0.5230 ss         1 5EU       0.228000
     20 C20          3.7150    -0.7970     0.2270 ca         1 5EU       0.172000
     21 CL2          3.3930    -2.4940     0.3500 cl         1 5EU      -0.191000
     22 C22          5.0170    -0.3850     0.4490 ca         1 5EU      -0.148000
     23 H1           6.7100     2.2770     0.5720 ho         1 5EU       0.469000
     24 H2           4.5440     2.9560     0.1010 ha         1 5EU       0.120000
     25 H3           2.2660     2.1880    -0.3090 ha         1 5EU       0.124000
     26 H4           1.4400    -1.8320    -1.8140 ha         1 5EU       0.139000
     27 H5          -1.1570    -3.2930    -1.8150 hc         1 5EU       0.044367
     28 H6          -2.4380    -2.1020    -2.0130 hc         1 5EU       0.044367
     29 H7          -1.0670    -2.1210    -3.1180 hc         1 5EU       0.044367
     30 H8          -5.1850     1.9680    -0.3730 ha         1 5EU       0.145000
     31 H9          -7.0640    -0.5850     1.1370 ho         1 5EU       0.469000
     32 H10         -5.2180    -1.9740     1.3240 ha         1 5EU       0.119000
     33 H11         -2.8240    -2.1790     0.8610 ha         1 5EU       0.124000
     34 H12          5.7910    -1.1100     0.6640 ha         1 5EU       0.145000
@<TRIPOS>BOND
     1     1     2 1   
     2     1    23 1   
     3     2     3 ar  
     4     2    22 ar  
     5     3     4 ar  
     6     3    24 1   
     7     4     5 ar  
     8     4    25 1   
     9     5     6 1   
    10     5    20 ar  
    11     6     7 2   
    12     6    19 1   
    13     7     8 1   
    14     7    26 1   
    15     8     9 1   
    16     8    10 2   
    17     9    27 1   
    18     9    28 1   
    19     9    29 1   
    20    10    11 1   
    21    10    19 1   
    22    11    12 ar  
    23    11    18 ar  
    24    12    13 1   
    25    12    14 ar  
    26    14    15 ar  
    27    14    30 1   
    28    15    16 1   
    29    15    17 ar  
    30    16    31 1   
    31    17    18 ar  
    32    17    32 1   
    33    18    33 1   
    34    20    21 1   
    35    20    22 ar  
    36    22    34 1   
@<TRIPOS>SUBSTRUCTURE
     1 5EU         1 TEMP              0 ****  ****    0 ROOT
