@<TRIPOS>MOLECULE
5EU
   34    36     1     0     0
SMALL
No Charge or Current Charge


@<TRIPOS>ATOM
      1 O01          6.7450     1.1680     0.3690 oh         1 5EU      -0.527100
      2 C02          5.4260     0.8470     0.2610 ca         1 5EU       0.154100
      3 C03          4.4760     1.8450     0.0030 ca         1 5EU      -0.206000
      4 C04          3.1150     1.5090    -0.1060 ca         1 5EU      -0.052000
      5 C05          2.6940     0.1720     0.0370 ca         1 5EU      -0.042000
      6 C06          1.2700    -0.1350    -0.0840 cc         1 5EU      -0.154000
      7 C07          0.8050    -1.0230    -1.0240 cd         1 5EU      -0.112000
      8 C08         -0.6170    -1.1350    -1.0490 cd         1 5EU      -0.080300
      9 C09         -1.3530    -2.0500    -1.9960 c3         1 5EU      -0.029800
     10 C10         -1.1960    -0.2950    -0.1210 cc         1 5EU      -0.161000
     11 C11         -2.6470    -0.2300     0.0450 ca         1 5EU      -0.045000
     12 C12         -3.3790     0.9240    -0.3150 ca         1 5EU       0.169000
     13 Cl1         -2.5750     2.3310    -1.0120 cl         1 5EU      -0.190000
     14 C14         -4.7720     0.9620    -0.1410 ca         1 5EU      -0.147000
     15 C15         -5.4440    -0.1450     0.3940 ca         1 5EU       0.155100
     16 O16         -6.7950    -0.1000     0.5600 oh         1 5EU      -0.527100
     17 C17         -4.7280    -1.2950     0.7560 ca         1 5EU      -0.210000
     18 C18         -3.3330    -1.3370     0.5820 ca         1 5EU      -0.043000
     19 S19         -0.0300     0.6690     0.7800 ss         1 5EU       0.228000
     20 C20          3.6620    -0.8260     0.3080 ca         1 5EU       0.172000
     21 Cl2          3.2040    -2.5130     0.5590 cl         1 5EU      -0.191000
     22 C22          5.0200    -0.4840     0.4160 ca         1 5EU      -0.148000
     23 H1           6.8400     2.1360     0.2350 ho         1 5EU       0.469000
     24 H2           4.7810     2.8820    -0.1160 ha         1 5EU       0.120000
     25 H3           2.3840     2.2890    -0.3110 ha         1 5EU       0.124000
     26 H4           1.4560    -1.5820    -1.6890 ha         1 5EU       0.139000
     27 H5          -1.7430    -2.9290    -1.4700 hc         1 5EU       0.044367
     28 H6          -2.1990    -1.5360    -2.4670 hc         1 5EU       0.044367
     29 H7          -0.6960    -2.4060    -2.7980 hc         1 5EU       0.044367
     30 H8          -5.3280     1.8500    -0.4240 ha         1 5EU       0.145000
     31 H9          -7.0890    -0.9540     0.9420 ho         1 5EU       0.469000
     32 H10         -5.2410    -2.1580     1.1720 ha         1 5EU       0.119000
     33 H11         -2.7790    -2.2290     0.8680 ha         1 5EU       0.124000
     34 H12          5.7560    -1.2540     0.6270 ha         1 5EU       0.145000
@<TRIPOS>BOND
     1     1     2 1   
     2     1    23 1   
     3     2     3 ar  
     4     2    22 ar  
     5     3     4 ar  
     6     3    24 1   
     7     4     5 ar  
     8     4    25 1   
     9     5     6 1   
    10     5    20 ar  
    11     6     7 2   
    12     6    19 1   
    13     7     8 1   
    14     7    26 1   
    15     8     9 1   
    16     8    10 2   
    17     9    27 1   
    18     9    28 1   
    19     9    29 1   
    20    10    11 1   
    21    10    19 1   
    22    11    12 ar  
    23    11    18 ar  
    24    12    13 1   
    25    12    14 ar  
    26    14    15 ar  
    27    14    30 1   
    28    15    16 1   
    29    15    17 ar  
    30    16    31 1   
    31    17    18 ar  
    32    17    32 1   
    33    18    33 1   
    34    20    21 1   
    35    20    22 ar  
    36    22    34 1   
@<TRIPOS>SUBSTRUCTURE
     1 5EU         1 TEMP              0 ****  ****    0 ROOT
