@<TRIPOS>MOLECULE
5EV
   55    59     1     0     0
SMALL
bcc


@<TRIPOS>ATOM
      1 C1          -0.7340     3.4560     0.8520 ca         1 5EV      -0.118800
      2 C2          -0.6070     2.3510    -0.0080 ca         1 5EV      -0.000200
      3 C3           0.4790     1.4830    -0.0020 ca         1 5EV      -0.169000
      4 C11         -1.9830     1.3170    -1.7650 ca         1 5EV      -0.031200
      5 C13          2.9740    -0.2650     0.5630 ca         1 5EV       0.953900
      6 C14         -1.8320     1.5640    -3.1210 ca         1 5EV      -0.090000
      7 C15         -2.0660     0.5590    -4.0480 ca         1 5EV      -0.156000
      8 C16         -2.4390    -0.7020    -3.6050 ca         1 5EV      -0.092000
      9 C17         -2.5920    -0.9640    -2.2510 ca         1 5EV      -0.191000
     10 C18         -2.3760     0.0510    -1.3270 ca         1 5EV       0.144100
     11 C20          2.5570    -2.0950    -0.6760 ca         1 5EV       0.494200
     12 C21          3.7680    -2.6470    -0.3520 ca         1 5EV      -0.491600
     13 C22          4.5870    -1.8750     0.5020 ca         1 5EV       0.755200
     14 C25         -2.4310    -1.3530     0.5580 ca         1 5EV       0.093100
     15 C26         -1.1800    -1.9480     0.6430 ca         1 5EV      -0.136500
     16 C27         -1.0670    -3.1940     1.2440 ca         1 5EV      -0.121500
     17 C28         -2.1890    -3.8350     1.7550 ca         1 5EV      -0.133000
     18 C29         -3.4320    -3.2230     1.6660 ca         1 5EV      -0.121500
     19 C30         -3.5600    -1.9780     1.0620 ca         1 5EV      -0.136500
     20 C4           1.4810     1.7260     0.9300 ca         1 5EV       0.186600
     21 C5           1.3760     2.8350     1.8020 ca         1 5EV      -0.209000
     22 C6           0.2960     3.6910     1.7660 ca         1 5EV      -0.054000
     23 C7          -1.9790     4.0860     0.5350 cc         1 5EV      -0.180200
     24 C8          -2.5560     3.3710    -0.4730 cd         1 5EV      -0.044300
     25 N9          -1.7180     2.3240    -0.8130 na         1 5EV       0.003500
     26 C10         -3.8580     3.5690    -1.1570 c3         1 5EV      -0.034900
     27 N12          2.6320     0.9530     1.0710 nu         1 5EV      -0.735300
     28 N19          2.1300    -0.9080    -0.2380 nb         1 5EV      -0.802000
     29 N23          4.1750    -0.6900     0.9510 nb         1 5EV      -0.867000
     30 O24         -2.5580    -0.1000     0.0080 os         1 5EV      -0.237200
     31 N31          5.7980    -2.2880     0.8980 nu         1 5EV      -0.880900
     32 C32          6.3940    -3.5420     0.5200 c3         1 5EV       0.224100
     33 H1           0.5430     0.6530    -0.6870 ha         1 5EV       0.170000
     34 H2          -1.5140     2.5470    -3.4420 ha         1 5EV       0.147000
     35 H3          -1.9480     0.7570    -5.1040 ha         1 5EV       0.138000
     36 H4          -2.6160    -1.4960    -4.3180 ha         1 5EV       0.133000
     37 H5          -2.8950    -1.9510    -1.9250 ha         1 5EV       0.148000
     38 H6           1.8760    -2.6320    -1.3280 h4         1 5EV       0.014100
     39 H7           4.0620    -3.6130    -0.7350 ha         1 5EV       0.149000
     40 H8          -0.3000    -1.4410     0.2640 ha         1 5EV       0.158000
     41 H9          -0.0940    -3.6620     1.3200 ha         1 5EV       0.133000
     42 H10         -2.0930    -4.8050     2.2260 ha         1 5EV       0.132000
     43 H11         -4.3110    -3.7150     2.0630 ha         1 5EV       0.133000
     44 H12         -4.5270    -1.4970     0.9850 ha         1 5EV       0.158000
     45 H13          2.1680     3.0130     2.5200 ha         1 5EV       0.124000
     46 H14          0.2530     4.5300     2.4490 ha         1 5EV       0.131000
     47 H15         -2.4030     4.9620     1.0010 ha         1 5EV       0.151000
     48 H16         -3.7370     3.7800    -2.2210 hc         1 5EV       0.047700
     49 H17         -4.4950     2.6860    -1.0750 hc         1 5EV       0.047700
     50 H18         -4.3880     4.4070    -0.7090 hc         1 5EV       0.047700
     51 H19          3.3270     1.3260     1.6990 hn         1 5EV       0.450800
     52 H20          6.2990    -1.6820     1.5260 hn         1 5EV       0.450800
     53 H21          5.8190    -4.3980     0.8800 h1         1 5EV       0.039367
     54 H22          6.4990    -3.6330    -0.5630 h1         1 5EV       0.039367
     55 H23          7.3870    -3.5980     0.9570 h1         1 5EV       0.039367
@<TRIPOS>BOND
     1     1     2 ar  
     2     1    22 ar  
     3     1    23 1   
     4     2     3 ar  
     5     2    25 1   
     6     3    20 ar  
     7     3    33 1   
     8     4     6 ar  
     9     4    10 ar  
    10     4    25 1   
    11     5    27 1   
    12     5    28 ar  
    13     5    29 ar  
    14     6     7 ar  
    15     6    34 1   
    16     7     8 ar  
    17     7    35 1   
    18     8     9 ar  
    19     8    36 1   
    20     9    10 ar  
    21     9    37 1   
    22    10    30 1   
    23    11    12 ar  
    24    11    28 ar  
    25    11    38 1   
    26    12    13 ar  
    27    12    39 1   
    28    13    29 ar  
    29    13    31 1   
    30    14    15 ar  
    31    14    19 ar  
    32    14    30 1   
    33    15    16 ar  
    34    15    40 1   
    35    16    17 ar  
    36    16    41 1   
    37    17    18 ar  
    38    17    42 1   
    39    18    19 ar  
    40    18    43 1   
    41    19    44 1   
    42    20    21 ar  
    43    20    27 1   
    44    21    22 ar  
    45    21    45 1   
    46    22    46 1   
    47    23    24 2   
    48    23    47 1   
    49    24    25 1   
    50    24    26 1   
    51    26    48 1   
    52    26    49 1   
    53    26    50 1   
    54    27    51 1   
    55    31    32 1   
    56    31    52 1   
    57    32    53 1   
    58    32    54 1   
    59    32    55 1   
@<TRIPOS>SUBSTRUCTURE
     1 5EV         1 TEMP              0 ****  ****    0 ROOT
