@<TRIPOS>MOLECULE
5EV
   55    59     1     0     0
SMALL
No Charge or Current Charge


@<TRIPOS>ATOM
      1 C1          -1.2680     2.4620     1.1670 ca         1 5EV      -0.118800
      2 C2          -0.7970     1.8700     0.0300 ca         1 5EV      -0.000200
      3 C3           0.3780     1.1080     0.0320 ca         1 5EV      -0.151000
      4 C11         -1.9440     1.2800    -2.0770 ca         1 5EV      -0.031200
      5 C13          2.8330    -0.8270     0.6360 ca         1 5EV       0.427900
      6 C14         -1.3890     1.5260    -3.3480 ca         1 5EV      -0.072000
      7 C15         -1.6730     0.6710    -4.4270 ca         1 5EV      -0.138000
      8 C16         -2.5170    -0.4370    -4.2460 ca         1 5EV      -0.074000
      9 C17         -3.0750    -0.6920    -2.9830 ca         1 5EV      -0.173000
     10 C18         -2.7860     0.1530    -1.8980 ca         1 5EV       0.144100
     11 C20          2.7790    -2.3630    -1.0590 ca         1 5EV       0.165900
     12 C21          4.0450    -2.8200    -0.6670 ca         1 5EV      -0.343000
     13 C22          4.6390    -2.1910     0.4310 ca         1 5EV       0.426900
     14 C25         -2.6520    -0.7060     0.3510 ca         1 5EV       0.093100
     15 C26         -1.5610    -1.5650     0.1040 ca         1 5EV      -0.118500
     16 C27         -0.8550    -2.1300     1.1820 ca         1 5EV      -0.103500
     17 C28         -1.2350    -1.8370     2.5030 ca         1 5EV      -0.115000
     18 C29         -2.3270    -0.9880     2.7500 ca         1 5EV      -0.103500
     19 C30         -3.0370    -0.4270     1.6730 ca         1 5EV      -0.118500
     20 C4           1.0640     0.9360     1.2560 ca         1 5EV       0.325000
     21 C5           0.5690     1.5590     2.4260 ca         1 5EV      -0.191000
     22 C6          -0.6120     2.3300     2.3950 ca         1 5EV      -0.036000
     23 C7          -2.4870     3.1420     0.8260 cc         1 5EV      -0.230200
     24 C8          -2.7290     2.9040    -0.5230 cd         1 5EV      -0.044300
     25 N9          -1.6360     2.1560    -1.0320 na         1 5EV       0.003500
     26 C10         -3.9230     3.3330    -1.3390 c3         1 5EV      -0.034900
     27 N12          2.2470     0.1980     1.3610 nu         1 5EV      -0.928900
     28 N19          2.1680    -1.3610    -0.4040 nb         1 5EV      -0.276000
     29 N23          4.0390    -1.1940     1.0890 nb         1 5EV      -0.341000
     30 O24         -3.3590    -0.1270    -0.6780 os         1 5EV      -0.237200
     31 N31          5.8820    -2.5540     0.9110 nu         1 5EV      -0.936100
     32 C32          6.7720    -3.6080     0.3930 c3         1 5EV       0.224100
     33 H1           0.7410     0.6760    -0.8920 ha         1 5EV       0.152000
     34 H2          -0.7360     2.3830    -3.4980 ha         1 5EV       0.129000
     35 H3          -1.2400     0.8690    -5.4050 ha         1 5EV       0.120000
     36 H4          -2.7400    -1.0950    -5.0840 ha         1 5EV       0.115000
     37 H5          -3.7300    -1.5480    -2.8400 ha         1 5EV       0.130000
     38 H6           2.2490    -2.8020    -1.9030 h4         1 5EV       0.014100
     39 H7           4.5320    -3.6300    -1.2000 ha         1 5EV       0.131000
     40 H8          -1.2550    -1.7940    -0.9130 ha         1 5EV       0.140000
     41 H9          -0.0110    -2.7890     0.9930 ha         1 5EV       0.115000
     42 H10         -0.6830    -2.2700     3.3350 ha         1 5EV       0.114000
     43 H11         -2.6210    -0.7610     3.7720 ha         1 5EV       0.115000
     44 H12         -3.8770     0.2370     1.8610 ha         1 5EV       0.140000
     45 H13          1.0950     1.4380     3.3680 ha         1 5EV       0.106000
     46 H14         -1.0030     2.7990     3.2950 ha         1 5EV       0.113000
     47 H15         -3.1450     3.6890     1.4970 ha         1 5EV       0.201000
     48 H16         -3.6240     3.6480    -2.3460 hc         1 5EV       0.047700
     49 H17         -4.6450     2.5140    -1.4410 hc         1 5EV       0.047700
     50 H18         -4.4400     4.1770    -0.8670 hc         1 5EV       0.047700
     51 H19          2.7640     0.3890     2.2160 hn         1 5EV       0.506000
     52 H20          6.2040    -2.0160     1.7180 hn         1 5EV       0.506000
     53 H21          6.2760    -4.5870     0.4390 h1         1 5EV       0.039367
     54 H22          7.0440    -3.4030    -0.6510 h1         1 5EV       0.039367
     55 H23          7.6940    -3.6580     0.9880 h1         1 5EV       0.039367
@<TRIPOS>BOND
     1     1     2 ar  
     2     1    22 ar  
     3     1    23 1   
     4     2     3 ar  
     5     2    25 1   
     6     3    20 ar  
     7     3    33 1   
     8     4     6 ar  
     9     4    10 ar  
    10     4    25 1   
    11     5    27 1   
    12     5    28 ar  
    13     5    29 ar  
    14     6     7 ar  
    15     6    34 1   
    16     7     8 ar  
    17     7    35 1   
    18     8     9 ar  
    19     8    36 1   
    20     9    10 ar  
    21     9    37 1   
    22    10    30 1   
    23    11    12 ar  
    24    11    28 ar  
    25    11    38 1   
    26    12    13 ar  
    27    12    39 1   
    28    13    29 ar  
    29    13    31 1   
    30    14    15 ar  
    31    14    19 ar  
    32    14    30 1   
    33    15    16 ar  
    34    15    40 1   
    35    16    17 ar  
    36    16    41 1   
    37    17    18 ar  
    38    17    42 1   
    39    18    19 ar  
    40    18    43 1   
    41    19    44 1   
    42    20    21 ar  
    43    20    27 1   
    44    21    22 ar  
    45    21    45 1   
    46    22    46 1   
    47    23    24 2   
    48    23    47 1   
    49    24    25 1   
    50    24    26 1   
    51    26    48 1   
    52    26    49 1   
    53    26    50 1   
    54    27    51 1   
    55    31    32 1   
    56    31    52 1   
    57    32    53 1   
    58    32    54 1   
    59    32    55 1   
@<TRIPOS>SUBSTRUCTURE
     1 5EV         1 TEMP              0 ****  ****    0 ROOT
