@<TRIPOS>MOLECULE
5EW
   59    63     1     0     0
SMALL
abcg2


@<TRIPOS>ATOM
      1 C1           4.7200    -0.4290    -0.1860 ca         1 5EW       0.423900
      2 C3           2.7400     1.0820    -0.3700 ca         1 5EW       0.333000
      3 C12         -1.6380     1.3510     0.3460 ca         1 5EW      -0.044200
      4 C13         -2.2710     0.2110    -0.1130 ca         1 5EW      -0.030000
      5 C14         -3.0850    -0.5250     0.7440 ca         1 5EW      -0.069800
      6 C15         -3.2210    -0.0500     2.0430 ca         1 5EW       0.360900
      7 C17         -1.8540     1.7140     1.6750 ca         1 5EW       0.444000
      8 C20          6.2400    -0.8210    -1.7920 ca         1 5EW       0.168900
      9 C21          6.9310    -1.6930    -0.9890 ca         1 5EW      -0.343000
     10 C22          6.3970    -1.8910     0.3040 ca         1 5EW       0.423900
     11 C25         -3.7960    -1.7330     0.2890 cc         1 5EW      -0.182400
     12 C26         -4.7010    -1.5390    -0.8250 c          1 5EW       0.555200
     13 C28         -5.2550    -3.8640    -0.6400 cc         1 5EW      -0.021400
     14 C29         -4.3980    -4.0530     0.3910 cd         1 5EW      -0.304000
     15 C30         -3.6380    -2.9620     0.8800 cd         1 5EW       0.046800
     16 N2           3.5930     0.1840     0.2780 nu         1 5EW      -0.939900
     17 C4           1.3890     1.0230    -0.0490 ca         1 5EW      -0.183000
     18 C5           0.5420     1.9550    -0.6340 ca         1 5EW      -0.005200
     19 C6           0.9900     2.9350    -1.5390 ca         1 5EW      -0.109800
     20 C7           2.3520     2.9730    -1.8450 ca         1 5EW      -0.047000
     21 C8           3.2140     2.0640    -1.2630 ca         1 5EW      -0.139000
     22 C9          -0.1580     3.6950    -1.9310 cc         1 5EW      -0.228200
     23 C10         -1.2370     3.1770    -1.2800 cd         1 5EW      -0.037300
     24 N11         -0.8150     2.1140    -0.4960 na         1 5EW      -0.010500
     25 N16         -2.6140     1.0420     2.4970 nb         1 5EW      -0.662000
     26 CL          -1.0950     3.1430     2.2840 cl         1 5EW      -0.143000
     27 N19          5.1330    -0.1760    -1.4230 nb         1 5EW      -0.262000
     28 N23          5.2930    -1.2510     0.6900 nb         1 5EW      -0.340000
     29 N27         -5.4080    -2.6580    -1.2320 n          1 5EW      -0.264000
     30 O31         -4.8680    -0.4660    -1.4000 o          1 5EW      -0.559000
     31 C32         -6.3360    -2.4980    -2.3410 c3         1 5EW       0.076300
     32 C33         -2.6980    -3.2130     2.0180 c3         1 5EW      -0.066900
     33 N34          6.9620    -2.7210     1.1910 nu         1 5EW      -0.938100
     34 C35          8.1660    -3.4720     0.9490 c3         1 5EW       0.224100
     35 H1          -2.1110    -0.1010    -1.1360 ha         1 5EW       0.147000
     36 H2          -3.8600    -0.5670     2.7500 h4         1 5EW       0.027100
     37 H3           6.5900    -0.6250    -2.8000 h4         1 5EW       0.016100
     38 H4           7.8250    -2.1890    -1.3350 ha         1 5EW       0.130000
     39 H5          -3.3140     2.7610    -1.6290 hc         1 5EW       0.054033
     40 H6          -3.0150     3.9090    -0.3310 hc         1 5EW       0.054033
     41 H7          -2.8030     4.4040    -2.0080 hc         1 5EW       0.054033
     42 H8          -5.8530    -4.6700    -1.0410 h4         1 5EW       0.201000
     43 H9          -4.2990    -5.0370     0.8260 ha         1 5EW       0.202000
     44 H10          3.2720    -0.1730     1.1650 hn         1 5EW       0.505000
     45 H11          1.0140     0.2680     0.6320 ha         1 5EW       0.116000
     46 H12          2.7430     3.7160    -2.5280 ha         1 5EW       0.115000
     47 H13          4.2660     2.1070    -1.4960 ha         1 5EW       0.136000
     48 H14         -0.1820     4.5270    -2.6170 ha         1 5EW       0.204000
     49 H15         -5.8100    -2.1830    -3.2400 h1         1 5EW       0.056700
     50 H16         -6.8210    -3.4500    -2.5320 h1         1 5EW       0.056700
     51 H17         -7.0960    -1.7570    -2.1020 h1         1 5EW       0.056700
     52 H18         -3.2370    -3.1950     2.9670 hc         1 5EW       0.054700
     53 H19         -2.2500    -4.2020     1.9270 hc         1 5EW       0.054700
     54 H20         -1.8970    -2.4800     2.0780 hc         1 5EW       0.054700
     55 H21          6.5270    -2.7810     2.0970 hn         1 5EW       0.505000
     56 H22          9.0270    -2.8240     0.7690 h1         1 5EW       0.039033
     57 H23          8.3770    -4.0750     1.8280 h1         1 5EW       0.039033
     58 H24          8.0610    -4.1450     0.0960 h1         1 5EW       0.039033
     59 C24         -2.6650     3.5800    -1.3120 c3         1 5EW      -0.042900
@<TRIPOS>BOND
     1     1    16 1   
     2     1    27 ar  
     3     1    28 ar  
     4     2    16 1   
     5     2    17 ar  
     6     2    21 ar  
     7     3     4 ar  
     8     3     7 ar  
     9     3    24 1   
    10     4     5 ar  
    11     4    35 1   
    12     5     6 ar  
    13     5    11 1   
    14     6    25 ar  
    15     6    36 1   
    16     7    25 ar  
    17     7    26 1   
    18     8     9 ar  
    19     8    27 ar  
    20     8    37 1   
    21     9    10 ar  
    22     9    38 1   
    23    10    28 ar  
    24    10    33 1   
    25    11    12 1   
    26    11    15 2   
    27    12    29 1   
    28    12    30 2   
    29    13    14 2   
    30    13    29 1   
    31    13    42 1   
    32    14    15 1   
    33    14    43 1   
    34    15    32 1   
    35    16    44 1   
    36    17    18 ar  
    37    17    45 1   
    38    18    19 ar  
    39    18    24 1   
    40    19    20 ar  
    41    19    22 1   
    42    20    21 ar  
    43    20    46 1   
    44    21    47 1   
    45    22    23 2   
    46    22    48 1   
    47    23    24 1   
    48    23    59 1   
    49    29    31 1   
    50    31    49 1   
    51    31    50 1   
    52    31    51 1   
    53    32    52 1   
    54    32    53 1   
    55    32    54 1   
    56    33    34 1   
    57    33    55 1   
    58    34    56 1   
    59    34    57 1   
    60    34    58 1   
    61    39    59 1   
    62    40    59 1   
    63    41    59 1   
@<TRIPOS>SUBSTRUCTURE
     1 5EW         1 TEMP              0 ****  ****    0 ROOT
