@<TRIPOS>MOLECULE
5EW
   59    63     1     0     0
SMALL
No Charge or Current Charge


@<TRIPOS>ATOM
      1 C1           5.0380    -0.4400    -0.1000 ca         1 5EW       0.423900
      2 C3           2.8800     0.9100    -0.4560 ca         1 5EW       0.333000
      3 C12         -1.6100     1.0870    -0.1250 ca         1 5EW      -0.044200
      4 C13         -2.4330     0.0140    -0.5040 ca         1 5EW      -0.030000
      5 C14         -3.2970    -0.5510     0.4520 ca         1 5EW      -0.069800
      6 C15         -3.3170     0.0010     1.7490 ca         1 5EW       0.360900
      7 C17         -1.6910     1.5580     1.2090 ca         1 5EW       0.444000
      8 C20          7.0190    -0.2720    -1.2330 ca         1 5EW       0.168900
      9 C21          7.5670    -1.2500    -0.3910 ca         1 5EW      -0.343000
     10 C22          6.7350    -1.7810     0.5990 ca         1 5EW       0.423900
     11 C25         -4.1810    -1.6660     0.1000 cc         1 5EW      -0.182400
     12 C26         -5.6430    -1.4490    -0.0050 c          1 5EW       0.555200
     13 C28         -5.7950    -3.8190    -0.5720 cc         1 5EW      -0.021400
     14 C29         -4.4340    -3.9960    -0.4560 cd         1 5EW      -0.304000
     15 C30         -3.5710    -2.8990    -0.1040 cd         1 5EW       0.046800
     16 N2           3.7160    -0.0700     0.0860 nu         1 5EW      -0.939900
     17 C4           1.4900     0.6760    -0.4360 ca         1 5EW      -0.183000
     18 C5           0.6400     1.6570    -0.9650 ca         1 5EW      -0.005200
     19 C6           1.1290     2.8210    -1.4840 ca         1 5EW      -0.109800
     20 C7           2.4990     3.1030    -1.5070 ca         1 5EW      -0.047000
     21 C8           3.3780     2.1310    -0.9830 ca         1 5EW      -0.139000
     22 C9           0.0070     3.6120    -1.9040 cc         1 5EW      -0.228200
     23 C10         -1.1430     2.8950    -1.5910 cd         1 5EW      -0.037300
     24 N11         -0.7410     1.6410    -1.0650 na         1 5EW      -0.010500
     25 N16         -2.5290     1.0320     2.1320 nb         1 5EW      -0.662000
     26 Cl          -0.7040     2.9000     1.7900 cl         1 5EW      -0.143000
     27 N19          5.7450     0.1360    -1.0900 nb         1 5EW      -0.262000
     28 N23          5.4670    -1.3830     0.7500 nb         1 5EW      -0.340000
     29 N27         -6.3980    -2.5850    -0.3510 n          1 5EW      -0.264000
     30 O31         -6.1630    -0.3570     0.1950 o          1 5EW      -0.559000
     31 C32         -7.8670    -2.4320    -0.4760 c3         1 5EW       0.076300
     32 C33         -2.0830    -3.1420     0.0320 c3         1 5EW      -0.066900
     33 N34          7.1600    -2.7500     1.4850 nu         1 5EW      -0.938100
     34 C35          8.4930    -3.3750     1.5610 c3         1 5EW       0.224100
     35 H1          -2.4030    -0.3750    -1.5190 ha         1 5EW       0.147000
     36 H2          -3.9820    -0.4040     2.5110 h4         1 5EW       0.027100
     37 H3           7.6010     0.1890    -2.0290 h4         1 5EW       0.016100
     38 H4           8.5950    -1.5730    -0.5130 ha         1 5EW       0.130000
     39 H5          -3.1930     2.5290    -2.1740 hc         1 5EW       0.054033
     40 H6          -3.0130     3.6190    -0.7860 hc         1 5EW       0.054033
     41 H7          -2.6540     4.1970    -2.4210 hc         1 5EW       0.054033
     42 H8          -6.5030    -4.6010    -0.8330 h4         1 5EW       0.201000
     43 H9          -4.0120    -4.9820    -0.6320 ha         1 5EW       0.202000
     44 H10          3.2320    -0.7160     0.7070 hn         1 5EW       0.505000
     45 H11          1.0830    -0.2450    -0.0310 ha         1 5EW       0.116000
     46 H12          2.8730     4.0440    -1.9050 ha         1 5EW       0.115000
     47 H13          4.4400     2.3430    -0.9690 ha         1 5EW       0.136000
     48 H14          0.0300     4.6140    -2.3250 ha         1 5EW       0.204000
     49 H15         -8.0960    -1.6900    -1.2520 h1         1 5EW       0.056700
     50 H16         -8.3370    -3.3850    -0.7500 h1         1 5EW       0.056700
     51 H17         -8.2860    -2.0940     0.4800 h1         1 5EW       0.056700
     52 H18         -1.6860    -2.6990     0.9530 hc         1 5EW       0.054700
     53 H19         -1.8520    -4.2130     0.0650 hc         1 5EW       0.054700
     54 H20         -1.5340    -2.7140    -0.8150 hc         1 5EW       0.054700
     55 H21          6.4560    -3.0540     2.1610 hn         1 5EW       0.505000
     56 H22          9.2630    -2.6150     1.7520 h1         1 5EW       0.039033
     57 H23          8.5250    -4.1130     2.3730 h1         1 5EW       0.039033
     58 H24          8.7330    -3.8860     0.6180 h1         1 5EW       0.039033
     59 C24         -2.5780     3.3320    -1.7510 c3         1 5EW      -0.042900
@<TRIPOS>BOND
     1     1    16 1   
     2     1    27 ar  
     3     1    28 ar  
     4     2    16 1   
     5     2    17 ar  
     6     2    21 ar  
     7     3     4 ar  
     8     3     7 ar  
     9     3    24 1   
    10     4     5 ar  
    11     4    35 1   
    12     5     6 ar  
    13     5    11 1   
    14     6    25 ar  
    15     6    36 1   
    16     7    25 ar  
    17     7    26 1   
    18     8     9 ar  
    19     8    27 ar  
    20     8    37 1   
    21     9    10 ar  
    22     9    38 1   
    23    10    28 ar  
    24    10    33 1   
    25    11    12 1   
    26    11    15 2   
    27    12    29 1   
    28    12    30 2   
    29    13    14 2   
    30    13    29 1   
    31    13    42 1   
    32    14    15 1   
    33    14    43 1   
    34    15    32 1   
    35    16    44 1   
    36    17    18 ar  
    37    17    45 1   
    38    18    19 ar  
    39    18    24 1   
    40    19    20 ar  
    41    19    22 1   
    42    20    21 ar  
    43    20    46 1   
    44    21    47 1   
    45    22    23 2   
    46    22    48 1   
    47    23    24 1   
    48    23    59 1   
    49    29    31 1   
    50    31    49 1   
    51    31    50 1   
    52    31    51 1   
    53    32    52 1   
    54    32    53 1   
    55    32    54 1   
    56    33    34 1   
    57    33    55 1   
    58    34    56 1   
    59    34    57 1   
    60    34    58 1   
    61    39    59 1   
    62    40    59 1   
    63    41    59 1   
@<TRIPOS>SUBSTRUCTURE
     1 5EW         1 TEMP              0 ****  ****    0 ROOT
