@<TRIPOS>MOLECULE
5EX
   73    75     1     0     0
SMALL
No Charge or Current Charge


@<TRIPOS>ATOM
      1 C23         -7.4540    -1.2090     0.3510 cy         1 5EX      -0.108700
      2 C22         -3.8290    -1.2960     0.8690 c          1 5EX       0.518100
      3 C21         -6.2740    -1.8520     1.1030 c3         1 5EX       0.117000
      4 C20         -2.7710    -0.4830    -0.0310 c          1 5EX       0.526100
      5 C24         -8.8790    -1.8290     0.5640 cy         1 5EX      -0.087900
      6 C26          4.7990    -3.7570    -3.0860 c5         1 5EX      -0.092400
      7 C27         -9.1940    -1.3170    -0.8800 cy         1 5EX      -0.091400
      8 C10          3.3430    -0.7150    -0.9110 c3         1 5EX       0.132900
      9 C7          -3.6960     4.0540     0.7230 ca         1 5EX      -0.107000
     10 C5          -2.1720     2.4950     1.8070 ca         1 5EX      -0.099000
     11 C6          -3.3320     3.2890     1.8440 ca         1 5EX      -0.107500
     12 C2          -0.3310     0.2400    -0.1360 c3         1 5EX       0.027700
     13 C3          -0.1190     1.5900     0.6010 c3         1 5EX      -0.044100
     14 C4          -1.3710     2.4600     0.6480 ca         1 5EX      -0.085300
     15 C11          3.3900    -1.9110    -1.8970 c3         1 5EX      -0.065400
     16 C12          4.7620    -2.6350    -2.0130 c5         1 5EX      -0.153700
     17 C13          5.2240    -3.3790    -0.7490 c          1 5EX       0.557000
     18 C14          4.3130     0.3960    -1.2740 c2         1 5EX      -0.163200
     19 C15          4.7610     1.4030    -0.4790 ce         1 5EX      -0.252200
     20 C16          4.4020     1.6460     0.9500 c          1 5EX       0.583300
     21 C17          0.9620    -0.6210    -0.1030 c          1 5EX       0.591100
     22 O1           4.8670    -3.2540     0.4100 o          1 5EX      -0.523000
     23 C8          -2.9000     4.0250    -0.4340 ca         1 5EX      -0.107500
     24 O2           5.0370     2.7650     1.4190 os         1 5EX      -0.455100
     25 C9          -1.7410     3.2300    -0.4720 ca         1 5EX      -0.099000
     26 N1           5.9410    -4.4580    -1.1940 ns         1 5EX      -0.521900
     27 C19          5.6170     4.4260     3.0500 c3         1 5EX      -0.097100
     28 O3           3.6500     0.9520     1.6180 o          1 5EX      -0.457000
     29 N2          -1.4700    -0.5110     0.4430 ns         1 5EX      -0.462900
     30 C25          6.0540    -4.5590    -2.6470 c5         1 5EX       0.102000
     31 O4           1.0600    -1.6560     0.5450 o          1 5EX      -0.567100
     32 O21         -3.0880     0.1110    -1.0610 o          1 5EX      -0.611100
     33 O5          -3.5060    -1.9490     1.8600 o          1 5EX      -0.601100
     34 N6          -5.1420    -1.2020     0.4440 ns         1 5EX      -0.477900
     35 C28         -7.6750    -1.5560    -1.1650 cy         1 5EX      -0.087900
     36 H1          -7.4370    -0.1290     0.5510 hc         1 5EX       0.060700
     37 H2          -6.3100    -1.6020     2.1720 h1         1 5EX       0.054200
     38 H3          -6.2500    -2.9380     0.9450 h1         1 5EX       0.054200
     39 H4          -8.8940    -2.9210     0.6730 hc         1 5EX       0.053200
     40 H5          -9.4770    -1.3900     1.3700 hc         1 5EX       0.053200
     41 H7           4.8770    -3.3730    -4.1100 hc         1 5EX       0.056200
     42 H8          -9.8940    -1.9250    -1.4630 hc         1 5EX       0.050700
     43 H9          -9.5100    -0.2680    -0.9340 hc         1 5EX       0.050700
     44 H10          3.7340     3.3600     2.9520 h1         1 5EX       0.050700
     45 H11          5.1150     2.3620     3.4770 h1         1 5EX       0.050700
     46 H12          3.5930    -1.0900     0.0920 h1         1 5EX       0.144700
     47 H13         -4.5940     4.6680     0.7510 ha         1 5EX       0.111000
     48 H14         -1.9000     1.9040     2.6790 ha         1 5EX       0.110500
     49 H15         -3.9470     3.3100     2.7400 ha         1 5EX       0.112000
     50 H16         -0.5450     0.4470    -1.1930 h1         1 5EX       0.084700
     51 H17          0.2330     1.3850     1.6200 hc         1 5EX       0.061200
     52 H18          0.6930     2.1450     0.1140 hc         1 5EX       0.061200
     53 H19          2.6260    -2.6400    -1.6000 hc         1 5EX       0.050700
     54 H20          3.0900    -1.5500    -2.8890 hc         1 5EX       0.050700
     55 H21          5.5470    -1.9160    -2.2730 hc         1 5EX       0.074700
     56 H22          4.6550     0.3560    -2.3100 ha         1 5EX       0.164000
     57 H24          5.4530     2.1360    -0.8900 ha         1 5EX       0.195000
     58 H26         -3.1810     4.6160    -1.3030 ha         1 5EX       0.112000
     59 H27         -1.1330     3.2090    -1.3740 ha         1 5EX       0.110500
     60 H28          6.2630    -5.1440    -0.5210 hn         1 5EX       0.329500
     61 H29          5.4680     4.7630     4.0830 hc         1 5EX       0.045367
     62 H30          6.6870     4.2360     2.9010 hc         1 5EX       0.045367
     63 H31          5.3070     5.2330     2.3770 hc         1 5EX       0.045367
     64 H32         -1.3090    -1.0710     1.2760 hn         1 5EX       0.363500
     65 H33          6.0270    -5.5960    -3.0070 h1         1 5EX       0.043700
     66 H34          6.9790    -4.0890    -3.0080 h1         1 5EX       0.043700
     67 H36         -5.3100    -0.6430    -0.3860 hn         1 5EX       0.343500
     68 H37         -7.2130    -0.8760    -1.8880 hc         1 5EX       0.053200
     69 H38         -7.4210    -2.5870    -1.4430 hc         1 5EX       0.053200
     70 N            2.0050    -0.1310    -0.8600 ns         1 5EX      -0.505900
     71 H6           3.9010    -4.3850    -3.0360 hc         1 5EX       0.056200
     72 C18          4.7990     3.1530     2.7830 c3         1 5EX       0.167600
     73 H35          1.8430     0.7310    -1.3660 hn         1 5EX       0.306500
@<TRIPOS>BOND
     1     1     3 1   
     2     1     5 1   
     3     1    35 1   
     4     1    36 1   
     5     2     4 1   
     6     2    33 2   
     7     2    34 1   
     8     3    34 1   
     9     3    37 1   
    10     3    38 1   
    11     4    29 1   
    12     4    32 2   
    13     5     7 1   
    14     5    39 1   
    15     5    40 1   
    16     6    16 1   
    17     6    30 1   
    18     6    41 1   
    19     6    71 1   
    20     7    35 1   
    21     7    42 1   
    22     7    43 1   
    23     8    15 1   
    24     8    18 1   
    25     8    46 1   
    26     8    70 1   
    27     9    11 ar  
    28     9    23 ar  
    29     9    47 1   
    30    10    11 ar  
    31    10    14 ar  
    32    10    48 1   
    33    11    49 1   
    34    12    13 1   
    35    12    21 1   
    36    12    29 1   
    37    12    50 1   
    38    13    14 1   
    39    13    51 1   
    40    13    52 1   
    41    14    25 ar  
    42    15    16 1   
    43    15    53 1   
    44    15    54 1   
    45    16    17 1   
    46    16    55 1   
    47    17    22 2   
    48    17    26 1   
    49    18    19 2   
    50    18    56 1   
    51    19    20 1   
    52    19    57 1   
    53    20    24 1   
    54    20    28 2   
    55    21    31 2   
    56    21    70 1   
    57    23    25 ar  
    58    23    58 1   
    59    24    72 1   
    60    25    59 1   
    61    26    30 1   
    62    26    60 1   
    63    27    61 1   
    64    27    62 1   
    65    27    63 1   
    66    27    72 1   
    67    29    64 1   
    68    30    65 1   
    69    30    66 1   
    70    34    67 1   
    71    35    68 1   
    72    35    69 1   
    73    44    72 1   
    74    45    72 1   
    75    70    73 1   
@<TRIPOS>SUBSTRUCTURE
     1 5EX         1 TEMP              0 ****  ****    0 ROOT
