@<TRIPOS>MOLECULE
5EX
   73    75     1     0     0
SMALL
abcg2


@<TRIPOS>ATOM
      1 C23         -7.4700    -1.8230     0.2140 cy         1 5EX      -0.108700
      2 C22         -4.0300    -0.7190     0.9910 c          1 5EX       0.518100
      3 C21         -6.2850    -1.6480     1.1340 c3         1 5EX       0.117000
      4 C20         -3.0510    -0.0240     0.0310 c          1 5EX       0.526100
      5 C24         -8.6250    -2.7210     0.6960 cy         1 5EX      -0.087900
      6 C26          4.8480    -2.6620    -2.8700 c5         1 5EX      -0.092400
      7 C27         -8.7480    -3.2620    -0.7420 cy         1 5EX      -0.091400
      8 C10          2.7950    -0.1660    -0.6490 c3         1 5EX       0.132900
      9 C7          -4.4740     4.3700    -0.2600 ca         1 5EX      -0.107000
     10 C5          -2.9520     3.2050     1.1950 ca         1 5EX      -0.099000
     11 C6          -4.1760     3.8250     0.9820 ca         1 5EX      -0.107500
     12 C2          -0.8040     0.9230    -0.0730 c3         1 5EX       0.027700
     13 C3          -0.7140     2.3940     0.3840 c3         1 5EX      -0.044100
     14 C4          -2.0120     3.1170     0.1720 ca         1 5EX      -0.085300
     15 C11          3.0430    -1.2650    -1.6910 c3         1 5EX      -0.065400
     16 C12          4.4220    -1.9050    -1.6120 c5         1 5EX      -0.153700
     17 C13          4.5620    -2.9590    -0.5220 c          1 5EX       0.557000
     18 C14          3.6920     1.0100    -0.9140 c2         1 5EX      -0.163200
     19 C15          4.6850     1.5150    -0.1810 ce         1 5EX      -0.252200
     20 C16          5.1340     1.0200     1.1370 c          1 5EX       0.583300
     21 C17          0.5200     0.2320     0.2400 c          1 5EX       0.591100
     22 O1           4.0440    -2.9410     0.5820 o          1 5EX      -0.523000
     23 C8          -3.5400     4.2910    -1.2860 ca         1 5EX      -0.107500
     24 O2           6.2220     1.6760     1.5240 os         1 5EX      -0.455100
     25 C9          -2.3210     3.6670    -1.0690 ca         1 5EX      -0.099000
     26 N1           5.3670    -3.9220    -1.0020 ns         1 5EX      -0.521900
     27 C19          7.9770     2.2530     3.0230 c3         1 5EX      -0.097100
     28 O3           4.6100     0.1550     1.7960 o          1 5EX      -0.457000
     29 N2          -1.8690     0.2260     0.5930 ns         1 5EX      -0.462900
     30 C25          5.8510    -3.6900    -2.3460 c5         1 5EX       0.102000
     31 O4           0.7180    -0.2810     1.3290 o          1 5EX      -0.567100
     32 O21         -3.3680     0.2350    -1.1180 o          1 5EX      -0.611100
     33 O5          -3.7110    -1.0000     2.1360 o          1 5EX      -0.601100
     34 N6          -5.2110    -0.9670     0.4400 ns         1 5EX      -0.477900
     35 C28         -7.3210    -2.7480    -1.0140 cy         1 5EX      -0.087900
     36 H1          -7.8540    -0.8460    -0.0940 hc         1 5EX       0.060700
     37 H2          -6.5750    -1.0800     2.0230 h1         1 5EX       0.054200
     38 H3          -5.9360    -2.6270     1.4770 h1         1 5EX       0.054200
     39 H4          -8.2660    -3.4910     1.3830 hc         1 5EX       0.053200
     40 H5          -9.4930    -2.2360     1.1410 hc         1 5EX       0.053200
     41 H7           5.2760    -2.0140    -3.6320 hc         1 5EX       0.056200
     42 H8          -8.9340    -4.3280    -0.8680 hc         1 5EX       0.050700
     43 H9          -9.4920    -2.7090    -1.3170 hc         1 5EX       0.050700
     44 H10          6.0520     1.4580     3.5820 h1         1 5EX       0.050700
     45 H11          7.1120     0.2920     2.7880 h1         1 5EX       0.050700
     46 H12          2.9420    -0.5600     0.3510 h1         1 5EX       0.144700
     47 H13         -5.4260     4.8580    -0.4270 ha         1 5EX       0.111000
     48 H14         -2.7230     2.7910     2.1700 ha         1 5EX       0.110500
     49 H15         -4.8960     3.8850     1.7880 ha         1 5EX       0.112000
     50 H16         -1.0050     0.8970    -1.1460 h1         1 5EX       0.084700
     51 H17         -0.4330     2.4210     1.4390 hc         1 5EX       0.061200
     52 H18          0.0910     2.8790    -0.1740 hc         1 5EX       0.061200
     53 H19          2.2690    -2.0290    -1.5800 hc         1 5EX       0.050700
     54 H20          2.9130    -0.8370    -2.6900 hc         1 5EX       0.050700
     55 H21          5.1760    -1.1360    -1.4010 hc         1 5EX       0.074700
     56 H22          3.5010     1.5050    -1.8640 ha         1 5EX       0.164000
     57 H24          5.2280     2.3660    -0.5730 ha         1 5EX       0.195000
     58 H26         -3.7630     4.7190    -2.2560 ha         1 5EX       0.112000
     59 H27         -1.5980     3.6070    -1.8750 ha         1 5EX       0.110500
     60 H28          5.7010    -4.6790    -0.4250 hn         1 5EX       0.329500
     61 H29          8.4380     2.0090     3.9800 hc         1 5EX       0.045367
     62 H30          8.7340     2.1340     2.2480 hc         1 5EX       0.045367
     63 H31          7.6720     3.2990     3.0570 hc         1 5EX       0.045367
     64 H32         -1.7370    -0.0420     1.5580 hn         1 5EX       0.363500
     65 H33          5.8560    -4.6120    -2.9280 h1         1 5EX       0.043700
     66 H34          6.8700    -3.2920    -2.3390 h1         1 5EX       0.043700
     67 H36         -5.3470    -0.6860    -0.5200 hn         1 5EX       0.343500
     68 H37         -7.1200    -2.2860    -1.9810 hc         1 5EX       0.053200
     69 H38         -6.5720    -3.5230    -0.8360 hc         1 5EX       0.053200
     70 N            1.4230     0.3010    -0.7480 ns         1 5EX      -0.505900
     71 H6           3.9870    -3.1730    -3.3060 hc         1 5EX       0.056200
     72 C18          6.7980     1.3380     2.7940 c3         1 5EX       0.167600
     73 H35          1.1330     0.6980    -1.6290 hn         1 5EX       0.306500
@<TRIPOS>BOND
     1     1     3 1   
     2     1     5 1   
     3     1    35 1   
     4     1    36 1   
     5     2     4 1   
     6     2    33 2   
     7     2    34 1   
     8     3    34 1   
     9     3    37 1   
    10     3    38 1   
    11     4    29 1   
    12     4    32 2   
    13     5     7 1   
    14     5    39 1   
    15     5    40 1   
    16     6    16 1   
    17     6    30 1   
    18     6    41 1   
    19     6    71 1   
    20     7    35 1   
    21     7    42 1   
    22     7    43 1   
    23     8    15 1   
    24     8    18 1   
    25     8    46 1   
    26     8    70 1   
    27     9    11 ar  
    28     9    23 ar  
    29     9    47 1   
    30    10    11 ar  
    31    10    14 ar  
    32    10    48 1   
    33    11    49 1   
    34    12    13 1   
    35    12    21 1   
    36    12    29 1   
    37    12    50 1   
    38    13    14 1   
    39    13    51 1   
    40    13    52 1   
    41    14    25 ar  
    42    15    16 1   
    43    15    53 1   
    44    15    54 1   
    45    16    17 1   
    46    16    55 1   
    47    17    22 2   
    48    17    26 1   
    49    18    19 2   
    50    18    56 1   
    51    19    20 1   
    52    19    57 1   
    53    20    24 1   
    54    20    28 2   
    55    21    31 2   
    56    21    70 1   
    57    23    25 ar  
    58    23    58 1   
    59    24    72 1   
    60    25    59 1   
    61    26    30 1   
    62    26    60 1   
    63    27    61 1   
    64    27    62 1   
    65    27    63 1   
    66    27    72 1   
    67    29    64 1   
    68    30    65 1   
    69    30    66 1   
    70    34    67 1   
    71    35    68 1   
    72    35    69 1   
    73    44    72 1   
    74    45    72 1   
    75    70    73 1   
@<TRIPOS>SUBSTRUCTURE
     1 5EX         1 TEMP              0 ****  ****    0 ROOT
