@<TRIPOS>MOLECULE
5EY
   47    50     1     0     0
SMALL
abcg2


@<TRIPOS>ATOM
      1 C3          -4.1620    -2.2640     1.9900 ca         1 5EY      -0.118000
      2 C2          -5.5420    -2.0880     2.0280 ca         1 5EY      -0.141000
      3 C4          -3.3570    -1.4020     1.2580 ca         1 5EY      -0.078000
      4 C12         -1.3040    -1.4390    -1.2270 ca         1 5EY      -0.124000
      5 C1          -6.1340    -1.0340     1.3400 ca         1 5EY      -0.113000
      6 C13         -0.2680    -2.3480    -1.3340 ca         1 5EY      -0.158000
      7 C5          -3.9460    -0.3520     0.5580 ca         1 5EY       0.007200
      8 C11         -1.0620    -0.1100    -0.8750 ca         1 5EY      -0.093800
      9 C16          0.2530     0.3040    -0.6460 ca         1 5EY      -0.081600
     10 C6          -5.3320    -0.1700     0.6140 ca         1 5EY      -0.102300
     11 C14          1.0380    -1.9420    -1.0900 ca         1 5EY       0.044100
     12 C15          1.2920    -0.6130    -0.7490 ca         1 5EY       0.078100
     13 C9          -3.3550     0.7360    -0.2320 ce         1 5EY      -0.145400
     14 C10         -2.1520     0.8720    -0.8010 cf         1 5EY      -0.009200
     15 C17          0.5730     1.7470    -0.2770 c          1 5EY       0.726600
     16 C26          6.5230     1.1170     0.7730 c          1 5EY       0.719000
     17 C7          -5.7320     1.0290    -0.1970 c5         1 5EY      -0.067100
     18 C22          3.3410    -2.3060    -1.2490 c6         1 5EY       0.117600
     19 C8          -4.4180     1.8150    -0.3230 c5         1 5EY       0.210500
     20 C21          3.5060    -1.1940    -0.2330 c6         1 5EY       0.126300
     21 C24          4.8910    -0.5830    -0.2810 c3         1 5EY      -0.041400
     22 O19          0.7950     2.5100    -1.2340 o          1 5EY      -0.702500
     23 O28          6.7260     1.9910     1.6420 o          1 5EY      -0.756500
     24 O18          0.5600     2.0190     0.9330 o          1 5EY      -0.702500
     25 O27          7.3490     0.6990    -0.0620 o          1 5EY      -0.756500
     26 O23          2.0330    -2.8530    -1.2000 os         1 5EY      -0.362100
     27 O20          2.5530    -0.1730    -0.5090 os         1 5EY      -0.284100
     28 O29         -4.2170     2.6850     0.7730 oh         1 5EY      -0.626000
     29 H3          -3.7090    -3.0800     2.5380 ha         1 5EY       0.100000
     30 HA          -6.1560    -2.7690     2.6030 ha         1 5EY       0.088000
     31 H4          -2.2850    -1.5480     1.2450 ha         1 5EY       0.146000
     32 H1          -7.2070    -0.8890     1.3800 ha         1 5EY       0.090000
     33 H13         -0.4620    -3.3750    -1.6170 ha         1 5EY       0.094000
     34 H10         -1.9490     1.8260    -1.2810 ha         1 5EY       0.202000
     35 H71C        -6.0770     0.7180    -1.1880 hc         1 5EY       0.038200
     36 H72C        -6.5370     1.6140     0.2530 hc         1 5EY       0.038200
     37 H8          -4.3630     2.3610    -1.2720 h1         1 5EY       0.033700
     38 H251         4.8830     0.1290     1.7500 hc         1 5EY       0.042200
     39 H252         4.3920     1.3290     0.5910 hc         1 5EY       0.042200
     40 H21          3.3120    -1.5970     0.7720 h1         1 5EY       0.044700
     41 H29         -4.9270     3.3350     0.7700 ho         1 5EY       0.414000
     42 H241         5.6120    -1.3870    -0.1130 hc         1 5EY       0.040200
     43 H242         5.0840    -0.2070    -1.2900 hc         1 5EY       0.040200
     44 H22A         3.5550    -1.9280    -2.2560 h1         1 5EY       0.049200
     45 H12         -2.3150    -1.7640    -1.4410 ha         1 5EY       0.090000
     46 H22B         4.0320    -3.1210    -1.0360 h1         1 5EY       0.049200
     47 C25          5.1070     0.5150     0.7490 c3         1 5EY      -0.208400
@<TRIPOS>BOND
     1     1     2 ar  
     2     1     3 ar  
     3     1    29 1   
     4     2     5 ar  
     5     2    30 1   
     6     3     7 ar  
     7     3    31 1   
     8     4     6 ar  
     9     4     8 ar  
    10     4    45 1   
    11     5    10 ar  
    12     5    32 1   
    13     6    11 ar  
    14     6    33 1   
    15     7    10 ar  
    16     7    13 1   
    17     8     9 ar  
    18     8    14 1   
    19     9    12 ar  
    20     9    15 1   
    21    10    17 1   
    22    11    12 ar  
    23    11    26 1   
    24    12    27 1   
    25    13    14 2   
    26    13    19 1   
    27    14    34 1   
    28    15    22 1   
    29    15    24 1   
    30    16    23 1   
    31    16    25 1   
    32    16    47 1   
    33    17    19 1   
    34    17    35 1   
    35    17    36 1   
    36    18    20 1   
    37    18    26 1   
    38    18    44 1   
    39    18    46 1   
    40    19    28 1   
    41    19    37 1   
    42    20    21 1   
    43    20    27 1   
    44    20    40 1   
    45    21    42 1   
    46    21    43 1   
    47    21    47 1   
    48    28    41 1   
    49    38    47 1   
    50    39    47 1   
@<TRIPOS>SUBSTRUCTURE
     1 5EY         1 TEMP              0 ****  ****    0 ROOT
