@<TRIPOS>MOLECULE
5EY
   47    50     1     0     0
SMALL
No Charge or Current Charge


@<TRIPOS>ATOM
      1 C3          -4.3350    -2.3540     1.9860 ca         1 5EY      -0.118000
      2 C2          -5.7240    -2.1070     2.0500 ca         1 5EY      -0.141000
      3 C4          -3.4970    -1.4980     1.2440 ca         1 5EY      -0.078000
      4 C12         -1.3050    -1.4970    -1.1340 ca         1 5EY      -0.124000
      5 C1          -6.2790    -0.9950     1.3870 ca         1 5EY      -0.113000
      6 C13         -0.2390    -2.4070    -1.2110 ca         1 5EY      -0.158000
      7 C5          -4.0810    -0.4170     0.5640 ca         1 5EY       0.007200
      8 C11         -1.0760    -0.1440    -0.8130 ca         1 5EY      -0.093800
      9 C16          0.2510     0.3060    -0.5870 ca         1 5EY      -0.081600
     10 C6          -5.4320    -0.1500     0.6510 ca         1 5EY      -0.102300
     11 C14          1.0720    -1.9690    -0.9820 ca         1 5EY       0.044100
     12 C15          1.3190    -0.6110    -0.6560 ca         1 5EY       0.078100
     13 C9          -3.4630     0.6390    -0.2390 ce         1 5EY      -0.145400
     14 C10         -2.2120     0.7990    -0.7690 cf         1 5EY      -0.009200
     15 C17          0.5360     1.7430    -0.2450 c          1 5EY       0.726600
     16 C26          6.7040     1.1420     0.6630 c          1 5EY       0.719000
     17 C7          -5.8390     1.1110    -0.1010 c5         1 5EY      -0.067100
     18 C22          3.4480    -2.3420    -1.1750 c6         1 5EY       0.117600
     19 C8          -4.4550     1.7720    -0.5250 c5         1 5EY       0.210500
     20 C21          3.6190    -1.1840    -0.1650 c6         1 5EY       0.126300
     21 C24          5.0160    -0.5060    -0.2560 c3         1 5EY      -0.041400
     22 O19          0.5840     2.5520    -1.1630 o          1 5EY      -0.702500
     23 O28          7.5860     0.5840     1.2970 o          1 5EY      -0.756500
     24 O18          0.6440     2.0470     0.9350 o          1 5EY      -0.702500
     25 O27          6.9090     2.0670    -0.1070 o          1 5EY      -0.756500
     26 O23          2.1090    -2.8740    -1.0890 os         1 5EY      -0.362100
     27 O20          2.6110    -0.1800    -0.4120 os         1 5EY      -0.284100
     28 O29         -4.1590     2.9280     0.2550 oh         1 5EY      -0.626000
     29 H3          -3.9090    -3.2030     2.5170 ha         1 5EY       0.100000
     30 HA          -6.3660    -2.7690     2.6260 ha         1 5EY       0.088000
     31 H4          -2.4250    -1.6660     1.2210 ha         1 5EY       0.146000
     32 H1          -7.3450    -0.7900     1.4500 ha         1 5EY       0.090000
     33 H13         -0.4290    -3.4470    -1.4640 ha         1 5EY       0.094000
     34 H10         -2.0190     1.7330    -1.3030 ha         1 5EY       0.202000
     35 H71C        -6.4360     0.8600    -0.9850 hc         1 5EY       0.038200
     36 H72C        -6.4500     1.7810     0.5140 hc         1 5EY       0.038200
     37 H8          -4.4690     2.0340    -1.5930 h1         1 5EY       0.033700
     38 H251         5.1290     0.1370     1.7740 hc         1 5EY       0.042200
     39 H252         4.5490     1.4050     0.5760 hc         1 5EY       0.042200
     40 H21          3.4790    -1.5780     0.8520 h1         1 5EY       0.044700
     41 H29         -4.8690     3.5780     0.0710 ho         1 5EY       0.414000
     42 H241         5.7900    -1.2740    -0.1360 hc         1 5EY       0.040200
     43 H242         5.1570    -0.0870    -1.2600 hc         1 5EY       0.040200
     44 H22A         3.6180    -1.9710    -2.1960 h1         1 5EY       0.049200
     45 H12         -2.3150    -1.8440    -1.3390 ha         1 5EY       0.090000
     46 H22B         4.1710    -3.1460    -0.9740 h1         1 5EY       0.049200
     47 C25          5.2700     0.6080     0.7940 c3         1 5EY      -0.208400
@<TRIPOS>BOND
     1     1     2 ar  
     2     1     3 ar  
     3     1    29 1   
     4     2     5 ar  
     5     2    30 1   
     6     3     7 ar  
     7     3    31 1   
     8     4     6 ar  
     9     4     8 ar  
    10     4    45 1   
    11     5    10 ar  
    12     5    32 1   
    13     6    11 ar  
    14     6    33 1   
    15     7    10 ar  
    16     7    13 1   
    17     8     9 ar  
    18     8    14 1   
    19     9    12 ar  
    20     9    15 1   
    21    10    17 1   
    22    11    12 ar  
    23    11    26 1   
    24    12    27 1   
    25    13    14 2   
    26    13    19 1   
    27    14    34 1   
    28    15    22 1   
    29    15    24 1   
    30    16    23 1   
    31    16    25 1   
    32    16    47 1   
    33    17    19 1   
    34    17    35 1   
    35    17    36 1   
    36    18    20 1   
    37    18    26 1   
    38    18    44 1   
    39    18    46 1   
    40    19    28 1   
    41    19    37 1   
    42    20    21 1   
    43    20    27 1   
    44    20    40 1   
    45    21    42 1   
    46    21    43 1   
    47    21    47 1   
    48    28    41 1   
    49    38    47 1   
    50    39    47 1   
@<TRIPOS>SUBSTRUCTURE
     1 5EY         1 TEMP              0 ****  ****    0 ROOT
