@<TRIPOS>MOLECULE
5EZ
   34    36     1     0     0
SMALL
No Charge or Current Charge


@<TRIPOS>ATOM
      1 N1           5.6690    -0.3910    -0.5640 n7         1 5EZ      -0.879400
      2 C2           4.2240    -0.2500    -0.8520 c5         1 5EZ       0.166800
      3 C3           6.0740     0.9190     0.0150 c5         1 5EZ       0.162800
      4 C4           3.7160     0.4630     0.4190 c5         1 5EZ      -0.094700
      5 C5           4.7630     1.6060     0.5050 c5         1 5EZ      -0.086400
      6 C6           2.2490     0.9410     0.3560 c3         1 5EZ       0.173600
      7 O7           1.4160    -0.2210     0.2160 os         1 5EZ      -0.329100
      8 C8          -2.0980    -1.2910    -0.1320 ca         1 5EZ      -0.004000
      9 C9          -0.6980    -1.3330    -0.0330 ca         1 5EZ       0.054000
     10 C11          0.0390    -0.1410     0.1220 ca         1 5EZ       0.193100
     11 C13         -0.6450     1.0940     0.1760 ca         1 5EZ      -0.225000
     12 C14         -2.7760    -0.0560    -0.0770 ca         1 5EZ      -0.205600
     13 C15         -2.0470     1.1370     0.0770 ca         1 5EZ       0.061200
     14 C16         -2.7340     2.4260     0.1350 cc         1 5EZ      -0.270200
     15 C17         -4.1110     2.4480     0.0360 cd         1 5EZ      -0.029400
     16 N18         -4.8140     1.2640    -0.1150 ns         1 5EZ      -0.385100
     17 C19         -4.2690     0.0060    -0.1810 c          1 5EZ       0.576600
     18 O21         -4.9720    -0.9840    -0.3160 o          1 5EZ      -0.553000
     19 H1           5.7650    -1.1010     0.1740 hn         1 5EZ       0.416000
     20 H21C         4.0570     0.3620    -1.7510 h1         1 5EZ       0.051200
     21 H22C         3.7400    -1.2260    -1.0080 h1         1 5EZ       0.051200
     22 H31C         6.7890     0.7720     0.8370 h1         1 5EZ       0.037700
     23 H32C         6.5680     1.5420    -0.7440 h1         1 5EZ       0.037700
     24 H4           3.7950    -0.1980     1.2910 hc         1 5EZ       0.065700
     25 H51C         4.8590     2.0120     1.5180 hc         1 5EZ       0.052700
     26 H52C         4.5000     2.4420    -0.1540 hc         1 5EZ       0.052700
     27 H61C         2.0050     1.4860     1.2780 h1         1 5EZ       0.042200
     28 H62C         2.1200     1.6180    -0.4990 h1         1 5EZ       0.042200
     29 H8          -2.6510    -2.2200    -0.2510 ha         1 5EZ       0.152000
     30 H131        -0.1040     2.0270     0.2950 ha         1 5EZ       0.123000
     31 H16         -2.1860     3.3570     0.2540 ha         1 5EZ       0.199000
     32 H17         -4.7220     3.3490     0.0680 h4         1 5EZ       0.199000
     33 H18         -5.8250     1.2810    -0.1880 hn         1 5EZ       0.328500
     34 Cl2          0.1200    -2.8960    -0.1060 cl         1 5EZ      -0.179000
@<TRIPOS>BOND
     1     1     2 1   
     2     1     3 1   
     3     1    19 1   
     4     2     4 1   
     5     2    20 1   
     6     2    21 1   
     7     3     5 1   
     8     3    22 1   
     9     3    23 1   
    10     4     5 1   
    11     4     6 1   
    12     4    24 1   
    13     5    25 1   
    14     5    26 1   
    15     6     7 1   
    16     6    27 1   
    17     6    28 1   
    18     7    10 1   
    19     8     9 ar  
    20     8    12 ar  
    21     8    29 1   
    22     9    10 ar  
    23     9    34 1   
    24    10    11 ar  
    25    11    13 ar  
    26    11    30 1   
    27    12    13 ar  
    28    12    17 1   
    29    13    14 1   
    30    14    15 2   
    31    14    31 1   
    32    15    16 1   
    33    15    32 1   
    34    16    17 1   
    35    16    33 1   
    36    17    18 2   
@<TRIPOS>SUBSTRUCTURE
     1 5EZ         1 TEMP              0 ****  ****    0 ROOT
