@<TRIPOS>MOLECULE
5EZ
   34    36     1     0     0
SMALL
abcg2


@<TRIPOS>ATOM
      1 N1           5.5360     0.0240    -0.9660 n7         1 5EZ      -0.879400
      2 C2           4.1200    -0.3100    -0.7990 c5         1 5EZ       0.166800
      3 C3           5.9500     0.9210     0.1100 c5         1 5EZ       0.162800
      4 C4           3.6570     0.4260     0.4650 c5         1 5EZ      -0.094700
      5 C5           4.6540     1.5800     0.5580 c5         1 5EZ      -0.086400
      6 C6           2.2240     0.8950     0.4160 c3         1 5EZ       0.173600
      7 O7           1.3920    -0.2550     0.2980 os         1 5EZ      -0.329100
      8 C8          -2.0490    -1.2420    -0.0270 ca         1 5EZ      -0.004000
      9 C9          -0.6860    -1.2850     0.0890 ca         1 5EZ       0.054000
     10 C11          0.0760    -0.0990     0.1920 ca         1 5EZ       0.193100
     11 C13         -0.5810     1.1170     0.1760 ca         1 5EZ      -0.225000
     12 C14         -2.7140    -0.0110    -0.0460 ca         1 5EZ      -0.205600
     13 C15         -1.9770     1.1800     0.0550 ca         1 5EZ       0.061200
     14 C16         -2.6720     2.4320     0.0320 cc         1 5EZ      -0.270200
     15 C17         -4.0130     2.4290    -0.0870 cd         1 5EZ      -0.029400
     16 N18         -4.7180     1.2640    -0.1830 ns         1 5EZ      -0.385100
     17 C19         -4.1680     0.0090    -0.1750 c          1 5EZ       0.576600
     18 O21         -4.8700    -0.9900    -0.2700 o          1 5EZ      -0.553000
     19 H1           6.1110    -0.8050    -0.9940 hn         1 5EZ       0.416000
     20 H21C         3.5410     0.0320    -1.6660 h1         1 5EZ       0.051200
     21 H22C         3.9580    -1.3870    -0.7200 h1         1 5EZ       0.051200
     22 H31C         6.4040     0.3890     0.9550 h1         1 5EZ       0.037700
     23 H32C         6.6830     1.6530    -0.2390 h1         1 5EZ       0.037700
     24 H4           3.7900    -0.2240     1.3360 hc         1 5EZ       0.065700
     25 H51C         4.7230     2.0110     1.5570 hc         1 5EZ       0.052700
     26 H52C         4.3730     2.3810    -0.1330 hc         1 5EZ       0.052700
     27 H61C         1.9620     1.4520     1.3230 h1         1 5EZ       0.042200
     28 H62C         2.0730     1.5600    -0.4430 h1         1 5EZ       0.042200
     29 H8          -2.6150    -2.1610    -0.1060 ha         1 5EZ       0.152000
     30 H131        -0.0270     2.0430     0.2560 ha         1 5EZ       0.123000
     31 H16         -2.1340     3.3650     0.1100 ha         1 5EZ       0.199000
     32 H17         -4.6040     3.3320    -0.1130 h4         1 5EZ       0.199000
     33 H18         -5.7230     1.3180    -0.2690 hn         1 5EZ       0.328500
     34 CL2          0.1410    -2.8010     0.1100 cl         1 5EZ      -0.179000
@<TRIPOS>BOND
     1     1     2 1   
     2     1     3 1   
     3     1    19 1   
     4     2     4 1   
     5     2    20 1   
     6     2    21 1   
     7     3     5 1   
     8     3    22 1   
     9     3    23 1   
    10     4     5 1   
    11     4     6 1   
    12     4    24 1   
    13     5    25 1   
    14     5    26 1   
    15     6     7 1   
    16     6    27 1   
    17     6    28 1   
    18     7    10 1   
    19     8     9 ar  
    20     8    12 ar  
    21     8    29 1   
    22     9    10 ar  
    23     9    34 1   
    24    10    11 ar  
    25    11    13 ar  
    26    11    30 1   
    27    12    13 ar  
    28    12    17 1   
    29    13    14 1   
    30    14    15 2   
    31    14    31 1   
    32    15    16 1   
    33    15    32 1   
    34    16    17 1   
    35    16    33 1   
    36    17    18 2   
@<TRIPOS>SUBSTRUCTURE
     1 5EZ         1 TEMP              0 ****  ****    0 ROOT
