@<TRIPOS>MOLECULE
5F1
   30    32     1     0     0
SMALL
No Charge or Current Charge


@<TRIPOS>ATOM
      1 C2          -1.7170    -1.6490     0.9770 c5         1 5F1      -0.165400
      2 C3          -2.8360    -0.5870     1.0920 c5         1 5F1       0.137300
      3 O3          -4.0360    -1.1350     1.6380 oh         1 5F1      -0.703000
      4 C4          -2.9600    -0.2130    -0.4070 c5         1 5F1       0.127300
      5 C5          -3.7830     1.0640    -0.6950 c3         1 5F1       0.189600
      6 F19         -3.8500     1.3350    -2.0240 f          1 5F1      -0.253000
      7 O4          -1.5800    -0.0400    -0.8000 os         1 5F1      -0.441000
      8 C1          -0.7850    -1.0370    -0.1180 c5         1 5F1       0.321300
      9 N9           0.4440    -0.3930     0.3400 na         1 5F1      -0.299300
     10 C8           0.6310     0.2480     1.5700 cc         1 5F1       0.411700
     11 N7           1.8880     0.7150     1.6970 nd         1 5F1      -0.554100
     12 C10          2.4910     0.3400     0.4920 ca         1 5F1      -0.100600
     13 C9           1.6270    -0.3290    -0.3380 ca         1 5F1       0.130500
     14 N3           1.9990    -0.7790    -1.5530 nb         1 5F1      -0.227000
     15 C7           3.2830    -0.5240    -1.9040 ca         1 5F1       0.184900
     16 N1           4.2130     0.1260    -1.1640 nb         1 5F1      -0.302000
     17 C6           3.8110     0.5570     0.0420 ca         1 5F1       0.452900
     18 N6           4.7410     1.2120     0.7870 nv         1 5F1      -1.062900
     19 H2'1        -2.1140    -2.6120     0.6360 hc         1 5F1       0.081200
     20 H2'2        -1.2040    -1.8370     1.9270 hc         1 5F1       0.081200
     21 H3          -2.5030     0.2820     1.6780 h1         1 5F1       0.041700
     22 HA          -3.8510    -1.3610     2.5810 ho         1 5F1       0.516000
     23 H4          -3.3920    -1.0450    -0.9810 h1         1 5F1       0.086700
     24 H5'1        -4.8050     0.9330    -0.3160 h1         1 5F1       0.052700
     25 H5'2        -3.3290     1.9220    -0.1840 h1         1 5F1       0.052700
     26 H1          -0.4750    -1.8200    -0.8240 h2         1 5F1       0.113700
     27 H8          -0.1590     0.3430     2.3050 h5         1 5F1       0.063800
     28 H2           3.5990    -0.8790    -2.8840 h5         1 5F1       0.046100
     29 H6N1         5.5530     1.5920     0.3070 hn         1 5F1       0.507000
     30 H6N2         4.4030     1.7320     1.5930 hn         1 5F1       0.507000
@<TRIPOS>BOND
     1     1     2 1   
     2     1     8 1   
     3     1    19 1   
     4     1    20 1   
     5     2     3 1   
     6     2     4 1   
     7     2    21 1   
     8     3    22 1   
     9     4     5 1   
    10     4     7 1   
    11     4    23 1   
    12     5     6 1   
    13     5    24 1   
    14     5    25 1   
    15     7     8 1   
    16     8     9 1   
    17     8    26 1   
    18     9    10 1   
    19     9    13 1   
    20    10    11 2   
    21    10    27 1   
    22    11    12 1   
    23    12    13 ar  
    24    12    17 ar  
    25    13    14 ar  
    26    14    15 ar  
    27    15    16 ar  
    28    15    28 1   
    29    16    17 ar  
    30    17    18 1   
    31    18    29 1   
    32    18    30 1   
@<TRIPOS>SUBSTRUCTURE
     1 5F1         1 TEMP              0 ****  ****    0 ROOT
