@<TRIPOS>MOLECULE
5F1
   30    32     1     0     0
SMALL
abcg2


@<TRIPOS>ATOM
      1 C2          -1.4830    -1.7250     0.4900 c5         1 5F1      -0.165400
      2 C3          -2.6820    -0.9190     0.9830 c5         1 5F1       0.137300
      3 O3          -3.7810    -1.6770     1.4030 oh         1 5F1      -0.703000
      4 C4          -3.0520    -0.1340    -0.2730 c5         1 5F1       0.127300
      5 C5          -3.7410     1.1660     0.0380 c3         1 5F1       0.189600
      6 F19         -4.1260     1.8060    -1.1350 f          1 5F1      -0.253000
      7 O4          -1.8240     0.1120    -0.9420 os         1 5F1      -0.441000
      8 C1          -0.8400    -0.8090    -0.5480 c5         1 5F1       0.321300
      9 N9           0.3100    -0.0710    -0.0540 na         1 5F1      -0.299300
     10 C8           0.3240     1.0070     0.7870 cc         1 5F1       0.411700
     11 N7           1.5200     1.4440     1.0500 nd         1 5F1      -0.554100
     12 C10          2.3490     0.6090     0.3460 ca         1 5F1      -0.100600
     13 C9           1.6150    -0.3410    -0.3480 ca         1 5F1       0.130500
     14 N3           2.1020    -1.3020    -1.1300 nb         1 5F1      -0.227000
     15 C7           3.4220    -1.2590    -1.1910 ca         1 5F1       0.184900
     16 N1           4.2510    -0.4110    -0.5890 nb         1 5F1      -0.302000
     17 C6           3.7470     0.5480     0.1960 ca         1 5F1       0.452900
     18 N6           4.5750     1.3970     0.8050 nv         1 5F1      -1.062900
     19 H2'1        -1.8430    -2.6290    -0.0050 hc         1 5F1       0.081200
     20 H2'2        -0.7910    -2.0220     1.2770 hc         1 5F1       0.081200
     21 H3          -2.3680    -0.2240     1.7750 h1         1 5F1       0.041700
     22 HA          -3.5880    -2.0380     2.2730 ho         1 5F1       0.516000
     23 H4          -3.7030    -0.7560    -0.9010 h1         1 5F1       0.086700
     24 H5'1        -4.6330     0.9730     0.6360 h1         1 5F1       0.052700
     25 H5'2        -3.0810     1.8370     0.5940 h1         1 5F1       0.052700
     26 H1          -0.4750    -1.3740    -1.4080 h2         1 5F1       0.113700
     27 H8          -0.5830     1.4480     1.1730 h5         1 5F1       0.063800
     28 H2           3.8960    -2.0110    -1.8130 h5         1 5F1       0.046100
     29 H6N1         5.5640     1.3530     0.6280 hn         1 5F1       0.507000
     30 H6N2         4.2240     2.1620     1.3530 hn         1 5F1       0.507000
@<TRIPOS>BOND
     1     1     2 1   
     2     1     8 1   
     3     1    19 1   
     4     1    20 1   
     5     2     3 1   
     6     2     4 1   
     7     2    21 1   
     8     3    22 1   
     9     4     5 1   
    10     4     7 1   
    11     4    23 1   
    12     5     6 1   
    13     5    24 1   
    14     5    25 1   
    15     7     8 1   
    16     8     9 1   
    17     8    26 1   
    18     9    10 1   
    19     9    13 1   
    20    10    11 2   
    21    10    27 1   
    22    11    12 1   
    23    12    13 ar  
    24    12    17 ar  
    25    13    14 ar  
    26    14    15 ar  
    27    15    16 ar  
    28    15    28 1   
    29    16    17 ar  
    30    17    18 1   
    31    18    29 1   
    32    18    30 1   
@<TRIPOS>SUBSTRUCTURE
     1 5F1         1 TEMP              0 ****  ****    0 ROOT
