@<TRIPOS>MOLECULE
5F2
   59    60     1     0     0
SMALL
No Charge or Current Charge


@<TRIPOS>ATOM
      1 N1          -4.8760     3.2590     0.4630 ns         1 5F2      -0.513900
      2 C2           1.8090     1.0020    -0.2110 c3         1 5F2       0.049700
      3 C3           2.2310    -0.4820    -0.4160 c3         1 5F2      -0.039100
      4 C4           3.7420    -0.6650    -0.5340 ca         1 5F2      -0.080300
      5 C5           4.4630    -1.3330     0.4760 ca         1 5F2      -0.106500
      6 C6           5.8550    -1.4910     0.3670 ca         1 5F2      -0.111000
      7 C7           6.5360    -0.9850    -0.7530 ca         1 5F2      -0.111000
      8 C8           5.8220    -0.3210    -1.7650 ca         1 5F2      -0.111000
      9 C9           4.4300    -0.1610    -1.6560 ca         1 5F2      -0.106500
     10 C19         -1.8180    -6.0670     1.0410 c3         1 5F2      -0.096100
     11 C20          2.7480     1.2970     2.1440 c          1 5F2       0.612100
     12 C22          3.6760     2.1740     2.9730 c3         1 5F2      -0.179100
     13 O3          -1.4740    -1.8410     0.9560 o          1 5F2      -0.468000
     14 C16         -1.9220    -2.5170     0.0410 c          1 5F2       0.603300
     15 O2          -2.0310    -3.8810     0.0750 os         1 5F2      -0.448100
     16 C18         -1.5910    -4.5630     1.2620 c3         1 5F2       0.168600
     17 C14         -2.4480    -0.6850    -1.6600 c2         1 5F2      -0.179200
     18 C10         -1.9890     0.5360    -0.8840 c3         1 5F2       0.140900
     19 C11         -2.5840     1.8600    -1.4310 c3         1 5F2      -0.085400
     20 C12         -4.1340     1.9830    -1.3310 c5         1 5F2      -0.150700
     21 C26         -4.6900     3.3370    -1.8520 c5         1 5F2      -0.092400
     22 C25         -4.5860     4.2340    -0.5860 c5         1 5F2       0.102000
     23 C13         -4.5990     1.9600     0.1300 c          1 5F2       0.567000
     24 O1          -4.8890     1.0080     0.8350 o          1 5F2      -0.550000
     25 N           -0.5300     0.5620    -0.9230 ns         1 5F2      -0.502900
     26 C17          0.2730     1.1810     0.0150 c          1 5F2       0.591100
     27 O4          -0.2070     1.8230     0.9420 o          1 5F2      -0.573100
     28 N2           2.6090     1.6960     0.8310 ns         1 5F2      -0.494900
     29 O21          2.1780     0.3240     2.6150 o          1 5F2      -0.591100
     30 H1          -5.2720     3.4590     1.3740 hn         1 5F2       0.330500
     31 H2           2.0220     1.5200    -1.1550 h1         1 5F2       0.051700
     32 H3           1.8360    -1.0880     0.4090 hc         1 5F2       0.067200
     33 H4           1.7540    -0.8750    -1.3220 hc         1 5F2       0.067200
     34 H5           3.9460    -1.7260     1.3480 ha         1 5F2       0.115000
     35 H6           6.4060    -2.0060     1.1510 ha         1 5F2       0.112000
     36 H7           7.6130    -1.1080    -0.8370 ha         1 5F2       0.112000
     37 H8           6.3480     0.0710    -2.6330 ha         1 5F2       0.112000
     38 H9           3.8860     0.3540    -2.4440 ha         1 5F2       0.115000
     39 H10         -1.4950    -6.6330     1.9230 hc         1 5F2       0.043367
     40 H11         -2.8800    -6.2770     0.8670 hc         1 5F2       0.043367
     41 H12         -1.2440    -6.4220     0.1760 hc         1 5F2       0.043367
     42 H13          3.3350     3.2140     2.9120 hc         1 5F2       0.059367
     43 H14          3.7610     1.8350     4.0120 hc         1 5F2       0.059367
     44 H15          4.6550     2.2200     2.4830 hc         1 5F2       0.059367
     45 H16         -2.1620    -4.2320     2.1400 h1         1 5F2       0.051700
     46 H17         -0.5250    -4.3770     1.4480 h1         1 5F2       0.051700
     47 H18         -2.7770    -2.7550    -1.9450 ha         1 5F2       0.194000
     48 H20         -2.8310    -0.4510    -2.6550 ha         1 5F2       0.163000
     49 H22         -2.3010     0.4300     0.1660 h1         1 5F2       0.124700
     50 H23         -2.1210     2.6950    -0.8920 hc         1 5F2       0.048700
     51 H24         -2.2760     1.9730    -2.4770 hc         1 5F2       0.048700
     52 H25         -4.5620     1.1200    -1.8520 hc         1 5F2       0.081700
     53 H26         -4.1360     3.7400    -2.7080 hc         1 5F2       0.056200
     54 H27         -5.7370     3.2320    -2.1620 hc         1 5F2       0.056200
     55 H28         -5.3070     5.0630    -0.6090 h1         1 5F2       0.044700
     56 H29         -3.5780     4.6550    -0.4720 h1         1 5F2       0.044700
     57 H30         -0.0670     0.0580    -1.6680 hn         1 5F2       0.305500
     58 H31          3.1270     2.5240     0.5620 hn         1 5F2       0.316500
     59 C15         -2.4160    -1.9850    -1.2650 ce         1 5F2      -0.223200
@<TRIPOS>BOND
     1     1    22 1   
     2     1    23 1   
     3     1    30 1   
     4     2     3 1   
     5     2    26 1   
     6     2    28 1   
     7     2    31 1   
     8     3     4 1   
     9     3    32 1   
    10     3    33 1   
    11     4     5 ar  
    12     4     9 ar  
    13     5     6 ar  
    14     5    34 1   
    15     6     7 ar  
    16     6    35 1   
    17     7     8 ar  
    18     7    36 1   
    19     8     9 ar  
    20     8    37 1   
    21     9    38 1   
    22    10    16 1   
    23    10    39 1   
    24    10    40 1   
    25    10    41 1   
    26    11    12 1   
    27    11    28 1   
    28    11    29 2   
    29    12    42 1   
    30    12    43 1   
    31    12    44 1   
    32    13    14 2   
    33    14    15 1   
    34    14    59 1   
    35    15    16 1   
    36    16    45 1   
    37    16    46 1   
    38    17    18 1   
    39    17    48 1   
    40    17    59 2   
    41    18    19 1   
    42    18    25 1   
    43    18    49 1   
    44    19    20 1   
    45    19    50 1   
    46    19    51 1   
    47    20    21 1   
    48    20    23 1   
    49    20    52 1   
    50    21    22 1   
    51    21    53 1   
    52    21    54 1   
    53    22    55 1   
    54    22    56 1   
    55    23    24 2   
    56    25    26 1   
    57    25    57 1   
    58    26    27 2   
    59    28    58 1   
    60    47    59 1   
@<TRIPOS>SUBSTRUCTURE
     1 5F2         1 TEMP              0 ****  ****    0 ROOT
