@<TRIPOS>MOLECULE
5F2
   59    60     1     0     0
SMALL
abcg2


@<TRIPOS>ATOM
      1 N1          -4.6670     1.9530     0.5010 ns         1 5F2      -0.513900
      2 C2           2.2820     1.0550    -0.1700 c3         1 5F2       0.049700
      3 C3           3.0270    -0.1990    -0.6750 c3         1 5F2      -0.039100
      4 C4           4.4740     0.0990    -0.9460 ca         1 5F2      -0.080300
      5 C5           5.4610    -0.2500    -0.0290 ca         1 5F2      -0.106500
      6 C6           6.7950     0.0570    -0.2670 ca         1 5F2      -0.111000
      7 C7           7.1600     0.7220    -1.4300 ca         1 5F2      -0.111000
      8 C8           6.1830     1.0730    -2.3540 ca         1 5F2      -0.111000
      9 C9           4.8520     0.7620    -2.1110 ca         1 5F2      -0.106500
     10 C19         -5.2510    -4.8970     1.3850 c3         1 5F2      -0.096100
     11 C20          3.1310     1.1420     2.1360 c          1 5F2       0.612100
     12 C22          3.7680     2.0470     3.1600 c3         1 5F2      -0.179100
     13 O3          -1.8910    -2.4550     1.2300 o          1 5F2      -0.468000
     14 C16         -2.5260    -2.7880     0.2590 c          1 5F2       0.603300
     15 O2          -3.5950    -3.5700     0.3090 os         1 5F2      -0.448100
     16 C18         -4.0650    -3.9880     1.5980 c3         1 5F2       0.168600
     17 C14         -1.6490    -1.3020    -1.5420 c2         1 5F2      -0.179200
     18 C10         -1.3130    -0.0950    -0.7180 c3         1 5F2       0.140900
     19 C11         -2.0540     1.1350    -1.2630 c3         1 5F2      -0.085400
     20 C12         -3.5820     1.0200    -1.3170 c5         1 5F2      -0.150700
     21 C26         -4.2300     2.3410    -1.7410 c5         1 5F2      -0.092400
     22 C25         -4.5100     3.0600    -0.4180 c5         1 5F2       0.102000
     23 C13         -4.1730     0.7820     0.0670 c          1 5F2       0.567000
     24 O1          -4.1830    -0.2720     0.6830 o          1 5F2      -0.550000
     25 N            0.1250     0.1150    -0.7790 ns         1 5F2      -0.502900
     26 C17          0.7990     0.8100     0.1550 c          1 5F2       0.591100
     27 O4           0.2750     1.2530     1.1610 o          1 5F2      -0.573100
     28 N2           2.9430     1.7030     0.9270 ns         1 5F2      -0.494900
     29 O21          2.8000    -0.0060     2.3940 o          1 5F2      -0.591100
     30 H1          -5.0290     2.0670     1.4350 hn         1 5F2       0.330500
     31 H2           2.2870     1.7830    -0.9870 h1         1 5F2       0.051700
     32 H3           2.9340    -1.0070     0.0500 hc         1 5F2       0.067200
     33 H4           2.5580    -0.5410    -1.5990 hc         1 5F2       0.067200
     34 H5           5.1830    -0.7690     0.8810 ha         1 5F2       0.115000
     35 H6           7.5490    -0.2240     0.4570 ha         1 5F2       0.112000
     36 H7           8.1980     0.9610    -1.6190 ha         1 5F2       0.112000
     37 H8           6.4590     1.5870    -3.2660 ha         1 5F2       0.112000
     38 H9           4.0970     1.0360    -2.8400 ha         1 5F2       0.115000
     39 H10         -5.6320    -5.2200     2.3530 hc         1 5F2       0.043367
     40 H11         -6.0600    -4.3870     0.8610 hc         1 5F2       0.043367
     41 H12         -4.9760    -5.7870     0.8190 hc         1 5F2       0.043367
     42 H13          2.9860     2.5430     3.7390 hc         1 5F2       0.059367
     43 H14          4.3710     1.4620     3.8510 hc         1 5F2       0.059367
     44 H15          4.3910     2.8210     2.7140 hc         1 5F2       0.059367
     45 H16         -4.3450    -3.1090     2.1830 h1         1 5F2       0.051700
     46 H17         -3.2680    -4.5080     2.1340 h1         1 5F2       0.051700
     47 H18         -2.4600    -3.1860    -1.8900 ha         1 5F2       0.194000
     48 H20         -1.4670    -1.1910    -2.6090 ha         1 5F2       0.163000
     49 H22         -1.5760    -0.2560     0.3230 h1         1 5F2       0.124700
     50 H23         -1.7660     2.0010    -0.6590 hc         1 5F2       0.048700
     51 H24         -1.7000     1.3340    -2.2790 hc         1 5F2       0.048700
     52 H25         -3.8640     0.1980    -1.9780 hc         1 5F2       0.081700
     53 H26         -3.5990     2.9300    -2.4060 hc         1 5F2       0.056200
     54 H27         -5.1700     2.1460    -2.2580 hc         1 5F2       0.056200
     55 H28         -5.4130     3.6680    -0.4580 h1         1 5F2       0.044700
     56 H29         -3.6840     3.7110    -0.1190 h1         1 5F2       0.044700
     57 H30          0.5870    -0.1070    -1.6470 hn         1 5F2       0.305500
     58 H31          3.2320     2.6560     0.7910 hn         1 5F2       0.316500
     59 C15         -2.2010    -2.4440    -1.1430 ce         1 5F2      -0.223200
@<TRIPOS>BOND
     1     1    22 1   
     2     1    23 1   
     3     1    30 1   
     4     2     3 1   
     5     2    26 1   
     6     2    28 1   
     7     2    31 1   
     8     3     4 1   
     9     3    32 1   
    10     3    33 1   
    11     4     5 ar  
    12     4     9 ar  
    13     5     6 ar  
    14     5    34 1   
    15     6     7 ar  
    16     6    35 1   
    17     7     8 ar  
    18     7    36 1   
    19     8     9 ar  
    20     8    37 1   
    21     9    38 1   
    22    10    16 1   
    23    10    39 1   
    24    10    40 1   
    25    10    41 1   
    26    11    12 1   
    27    11    28 1   
    28    11    29 2   
    29    12    42 1   
    30    12    43 1   
    31    12    44 1   
    32    13    14 2   
    33    14    15 1   
    34    14    59 1   
    35    15    16 1   
    36    16    45 1   
    37    16    46 1   
    38    17    18 1   
    39    17    48 1   
    40    17    59 2   
    41    18    19 1   
    42    18    25 1   
    43    18    49 1   
    44    19    20 1   
    45    19    50 1   
    46    19    51 1   
    47    20    21 1   
    48    20    23 1   
    49    20    52 1   
    50    21    22 1   
    51    21    53 1   
    52    21    54 1   
    53    22    55 1   
    54    22    56 1   
    55    23    24 2   
    56    25    26 1   
    57    25    57 1   
    58    26    27 2   
    59    28    58 1   
    60    47    59 1   
@<TRIPOS>SUBSTRUCTURE
     1 5F2         1 TEMP              0 ****  ****    0 ROOT
