@<TRIPOS>MOLECULE
5F3
   32    34     1     0     0
SMALL
bcc


@<TRIPOS>ATOM
      1 C11          0.0470     3.5960    -0.3180 c          1 5F3       0.926200
      2 C12         -2.4980    -0.7220    -0.0130 cp         1 5F3       0.044500
      3 C7          -1.2140     0.0030    -0.0520 cp         1 5F3      -0.098000
      4 C8          -1.1860     1.3910    -0.1570 ca         1 5F3      -0.064500
      5 C9           0.0210     2.0750    -0.1920 ca         1 5F3      -0.149600
      6 C10          1.2060     1.3560    -0.1140 ca         1 5F3      -0.064500
      7 C2           4.8940    -0.8990     0.1300 ca         1 5F3       0.387450
      8 N1          -4.9450    -2.0950     0.0730 nb         1 5F3      -0.689000
      9 C6          -0.0120    -0.6960     0.0190 ca         1 5F3      -0.108000
     10 C5           1.2160    -0.0350    -0.0060 cp         1 5F3      -0.098000
     11 C4           2.4890    -0.7890     0.0840 cp         1 5F3       0.044500
     12 O           -1.0580     4.1620    -0.4060 o          1 5F3      -0.818300
     13 O1           1.1700     4.1330    -0.3220 o          1 5F3      -0.818300
     14 C3           3.7310    -0.1520     0.0450 ca         1 5F3      -0.247300
     15 N            4.9190    -2.2210     0.2510 nb         1 5F3      -0.689000
     16 C1           3.7420    -2.8340     0.2910 ca         1 5F3       0.387450
     17 C            2.5250    -2.1790     0.2130 ca         1 5F3      -0.247300
     18 C16         -3.6100    -0.1910     0.6370 ca         1 5F3      -0.247300
     19 C15         -4.7950    -0.9090     0.6520 ca         1 5F3       0.387450
     20 C14         -3.8870    -2.6020    -0.5490 ca         1 5F3       0.387450
     21 C13         -2.6590    -1.9660    -0.6210 ca         1 5F3      -0.247300
     22 H5          -2.1090     1.9520    -0.2340 ha         1 5F3       0.154500
     23 H6           2.1280     1.9210    -0.1390 ha         1 5F3       0.154500
     24 H2           5.8540    -0.3950     0.0960 h4         1 5F3       0.005600
     25 H4          -0.0530    -1.7720     0.1170 ha         1 5F3       0.110000
     26 H3           3.8220     0.9200    -0.0490 ha         1 5F3       0.145000
     27 H1           3.7600    -3.9140     0.3930 h4         1 5F3       0.005600
     28 H            1.6270    -2.7780     0.2530 ha         1 5F3       0.145000
     29 H11         -3.5580     0.7620     1.1490 ha         1 5F3       0.145000
     30 H10         -5.6620    -0.5050     1.1640 h4         1 5F3       0.005600
     31 H9          -4.0210    -3.5680    -1.0240 h4         1 5F3       0.005600
     32 H8          -1.8500    -2.4340    -1.1670 ha         1 5F3       0.145000
@<TRIPOS>BOND
     1     1     5 1   
     2     1    12 1   
     3     1    13 1   
     4     2     3 1   
     5     2    18 ar  
     6     2    21 ar  
     7     3     4 ar  
     8     3     9 ar  
     9     4     5 ar  
    10     4    22 1   
    11     5     6 ar  
    12     6    10 ar  
    13     6    23 1   
    14     7    14 ar  
    15     7    15 ar  
    16     7    24 1   
    17     8    19 ar  
    18     8    20 ar  
    19     9    10 ar  
    20     9    25 1   
    21    10    11 1   
    22    11    14 ar  
    23    11    17 ar  
    24    14    26 1   
    25    15    16 ar  
    26    16    17 ar  
    27    16    27 1   
    28    17    28 1   
    29    18    19 ar  
    30    18    29 1   
    31    19    30 1   
    32    20    21 ar  
    33    20    31 1   
    34    21    32 1   
@<TRIPOS>SUBSTRUCTURE
     1 5F3         1 TEMP              0 ****  ****    0 ROOT
