@<TRIPOS>MOLECULE
5F3
   32    34     1     0     0
SMALL
No Charge or Current Charge


@<TRIPOS>ATOM
      1 C11          0.0530     3.6470     0.0260 c          1 5F3       0.715600
      2 C12         -2.5380    -0.7260    -0.0900 cp         1 5F3       0.044500
      3 C7          -1.2330     0.0080    -0.0360 cp         1 5F3      -0.098000
      4 C8          -1.1910     1.4240    -0.0280 ca         1 5F3      -0.046500
      5 C9           0.0330     2.1280     0.0190 ca         1 5F3      -0.149600
      6 C10          1.2380     1.3920     0.0580 ca         1 5F3      -0.046500
      7 C2           4.8920    -1.0700    -0.4570 ca         1 5F3       0.322150
      8 N1          -5.0220    -2.1240    -0.1920 nb         1 5F3      -0.689000
      9 C6          -0.0030    -0.6910     0.0050 ca         1 5F3      -0.090000
     10 C5           1.2450    -0.0250     0.0520 cp         1 5F3      -0.098000
     11 C4           2.5300    -0.7930     0.0990 cp         1 5F3       0.044500
     12 O           -1.0130     4.2460     0.0180 o          1 5F3      -0.713000
     13 O1           1.1340     4.2180     0.0400 o          1 5F3      -0.713000
     14 C3           3.7090    -0.3180    -0.5230 ca         1 5F3      -0.164000
     15 N            4.9770    -2.2550     0.1870 nb         1 5F3      -0.689000
     16 C1           3.8590    -2.7230     0.7870 ca         1 5F3       0.322150
     17 C            2.6350    -2.0350     0.7670 ca         1 5F3      -0.164000
     18 C16         -3.7040    -0.2270     0.5370 ca         1 5F3      -0.164000
     19 C15         -4.9070    -0.9470     0.4630 ca         1 5F3       0.322150
     20 C14         -3.9170    -2.6140    -0.7970 ca         1 5F3       0.322150
     21 C13         -2.6760    -1.9590    -0.7700 ca         1 5F3      -0.164000
     22 H5          -2.1240     1.9800    -0.0740 ha         1 5F3       0.136500
     23 H6           2.1860     1.9230     0.1090 ha         1 5F3       0.136500
     24 H2           5.8030    -0.7130    -0.9370 h4         1 5F3       0.005600
     25 H4          -0.0170    -1.7770    -0.0010 ha         1 5F3       0.092000
     26 H3           3.7100     0.6200    -1.0690 ha         1 5F3       0.127000
     27 H1           3.9500    -3.6780     1.3030 h4         1 5F3       0.005600
     28 H            1.7820    -2.4640     1.2820 ha         1 5F3       0.127000
     29 H11         -3.6820     0.7050     1.0920 ha         1 5F3       0.127000
     30 H10         -5.8080    -0.5720     0.9470 h4         1 5F3       0.005600
     31 H9          -4.0320    -3.5610    -1.3230 h4         1 5F3       0.005600
     32 H8          -1.8330    -2.4040    -1.2900 ha         1 5F3       0.127000
@<TRIPOS>BOND
     1     1     5 1   
     2     1    12 1   
     3     1    13 1   
     4     2     3 1   
     5     2    18 ar  
     6     2    21 ar  
     7     3     4 ar  
     8     3     9 ar  
     9     4     5 ar  
    10     4    22 1   
    11     5     6 ar  
    12     6    10 ar  
    13     6    23 1   
    14     7    14 ar  
    15     7    15 ar  
    16     7    24 1   
    17     8    19 ar  
    18     8    20 ar  
    19     9    10 ar  
    20     9    25 1   
    21    10    11 1   
    22    11    14 ar  
    23    11    17 ar  
    24    14    26 1   
    25    15    16 ar  
    26    16    17 ar  
    27    16    27 1   
    28    17    28 1   
    29    18    19 ar  
    30    18    29 1   
    31    19    30 1   
    32    20    21 ar  
    33    20    31 1   
    34    21    32 1   
@<TRIPOS>SUBSTRUCTURE
     1 5F3         1 TEMP              0 ****  ****    0 ROOT
