@<TRIPOS>MOLECULE
5F4
   29    30     1     0     0
SMALL
abcg2


@<TRIPOS>ATOM
      1 C1         -24.7380   -22.6230    10.1470 cc         1 5F4      -0.259600
      2 C2         -24.6820   -24.0610    10.0200 c          1 5F4       0.634300
      3 C3         -24.6470   -21.8680    11.3520 cc         1 5F4      -0.065000
      4 C11        -24.7280   -19.2810    11.7730 c          1 5F4       0.635700
      5 C12        -23.7830   -25.3910     6.5530 ca         1 5F4      -0.105000
      6 C14        -26.1760   -25.5410     6.8310 ca         1 5F4      -0.105000
      7 C18        -25.0350   -25.7400     6.0640 ca         1 5F4      -0.088000
      8 C19        -24.5450   -18.2210    13.9700 c3         1 5F4       0.098300
      9 C4         -24.8920   -21.7090     9.1020 cd         1 5F4      -0.102000
     10 C5         -24.8070   -24.6310     8.6240 ca         1 5F4      -0.140600
     11 O6         -24.5440   -24.8210    10.9690 o          1 5F4      -0.506100
     12 C7         -24.7450   -20.5410    11.0070 cd         1 5F4      -0.262600
     13 N8         -24.8930   -20.4770     9.6340 na         1 5F4      -0.064000
     14 C9         -23.6870   -24.8410     7.8230 ca         1 5F4       0.147500
     15 C10        -26.0460   -24.9910     8.0980 ca         1 5F4       0.147500
     16 CL1        -22.1090   -24.3930     8.4310 cl         1 5F4      -0.188000
     17 CL2        -27.4860   -24.7320     9.0570 cl         1 5F4      -0.188000
     18 N16        -24.5800   -19.3850    13.1030 ns         1 5F4      -0.494900
     19 O17        -24.8460   -18.1960    11.1910 o          1 5F4      -0.631100
     20 H1         -24.5250   -22.2750    12.3430 ha         1 5F4       0.146000
     21 H2         -22.8930   -25.5400     5.9590 ha         1 5F4       0.136500
     22 H3         -27.1540   -25.8060     6.4550 ha         1 5F4       0.136500
     23 H4         -25.1230   -26.1690     5.0750 ha         1 5F4       0.126000
     24 H5         -24.4650   -18.5650    14.9990 h1         1 5F4       0.044033
     25 H6         -23.6890   -17.5840    13.7380 h1         1 5F4       0.044033
     26 H7         -25.4550   -17.6300    13.8610 h1         1 5F4       0.044033
     27 H8         -24.9950   -21.8700     8.0420 h4         1 5F4       0.160000
     28 H9         -24.9910   -19.6080     9.1290 hn         1 5F4       0.374000
     29 H10        -24.4760   -20.2960    13.5180 hn         1 5F4       0.323500
@<TRIPOS>BOND
     1     1     2 1   
     2     1     3 1   
     3     1     9 2   
     4     2    10 1   
     5     2    11 2   
     6     3    12 2   
     7     3    20 1   
     8     4    12 1   
     9     4    18 1   
    10     4    19 2   
    11     5     7 ar  
    12     5    14 ar  
    13     5    21 1   
    14     6     7 ar  
    15     6    15 ar  
    16     6    22 1   
    17     7    23 1   
    18     8    18 1   
    19     8    24 1   
    20     8    25 1   
    21     8    26 1   
    22     9    13 1   
    23     9    27 1   
    24    10    14 ar  
    25    10    15 ar  
    26    12    13 1   
    27    13    28 1   
    28    14    16 1   
    29    15    17 1   
    30    18    29 1   
@<TRIPOS>SUBSTRUCTURE
     1 5F4         1 TEMP              0 ****  ****    0 ROOT
