@<TRIPOS>MOLECULE
5F4
   29    30     1     0     0
SMALL
No Charge or Current Charge


@<TRIPOS>ATOM
      1 C1         -24.8460   -22.4570    10.0350 cc         1 5F4      -0.259600
      2 C2         -24.9420   -23.9400    10.0300 c          1 5F4       0.634300
      3 C3         -24.7540   -21.6560    11.1920 cc         1 5F4      -0.065000
      4 C11        -24.5990   -19.1520    11.7050 c          1 5F4       0.635700
      5 C12        -23.7880   -25.2220     6.6280 ca         1 5F4      -0.105000
      6 C14        -26.1150   -25.8440     6.9460 ca         1 5F4      -0.105000
      7 C18        -24.9560   -25.8420     6.1530 ca         1 5F4      -0.088000
      8 C19        -24.4500   -18.4520    14.1110 c3         1 5F4       0.098300
      9 C4         -24.8640   -21.6420     8.9300 cd         1 5F4      -0.102000
     10 C5         -24.9420   -24.5960     8.6860 ca         1 5F4      -0.140600
     11 O6         -24.9850   -24.6020    11.0610 o          1 5F4      -0.506100
     12 C7         -24.7020   -20.3360    10.8160 cd         1 5F4      -0.262600
     13 N8         -24.7680   -20.3300     9.4120 na         1 5F4      -0.064000
     14 C9         -23.7790   -24.6030     7.8890 ca         1 5F4       0.147500
     15 C10        -26.1090   -25.2270     8.2090 ca         1 5F4       0.147500
     16 Cl1        -22.2760   -23.8780     8.4600 cl         1 5F4      -0.188000
     17 Cl2        -27.5940   -25.2300     9.1590 cl         1 5F4      -0.188000
     18 N16        -24.5520   -19.4510    13.0450 ns         1 5F4      -0.494900
     19 O17        -24.5590   -18.0040    11.2850 o          1 5F4      -0.631100
     20 H1         -24.7310   -22.0530    12.2040 ha         1 5F4       0.146000
     21 H2         -22.8860   -25.2270     6.0210 ha         1 5F4       0.136500
     22 H3         -27.0220   -26.3210     6.5820 ha         1 5F4       0.136500
     23 H4         -24.9620   -26.3210     5.1750 ha         1 5F4       0.126000
     24 H5         -24.4300   -18.9560    15.0850 h1         1 5F4       0.044033
     25 H6         -23.5280   -17.8700    13.9850 h1         1 5F4       0.044033
     26 H7         -25.3160   -17.7780    14.0700 h1         1 5F4       0.044033
     27 H8         -24.9370   -21.8740     7.8720 h4         1 5F4       0.160000
     28 H9         -24.7530   -19.4940     8.8320 hn         1 5F4       0.374000
     29 H10        -24.5900   -20.4300    13.2950 hn         1 5F4       0.323500
@<TRIPOS>BOND
     1     1     2 1   
     2     1     3 1   
     3     1     9 2   
     4     2    10 1   
     5     2    11 2   
     6     3    12 2   
     7     3    20 1   
     8     4    12 1   
     9     4    18 1   
    10     4    19 2   
    11     5     7 ar  
    12     5    14 ar  
    13     5    21 1   
    14     6     7 ar  
    15     6    15 ar  
    16     6    22 1   
    17     7    23 1   
    18     8    18 1   
    19     8    24 1   
    20     8    25 1   
    21     8    26 1   
    22     9    13 1   
    23     9    27 1   
    24    10    14 ar  
    25    10    15 ar  
    26    12    13 1   
    27    13    28 1   
    28    14    16 1   
    29    15    17 1   
    30    18    29 1   
@<TRIPOS>SUBSTRUCTURE
     1 5F4         1 TEMP              0 ****  ****    0 ROOT
