@<TRIPOS>MOLECULE
5F5
   20    21     1     0     0
SMALL
bcc


@<TRIPOS>ATOM
      1 C1          -0.2990     0.4250     0.0070 ca         1 5F5      -0.194500
      2 C2          -0.1230     1.8090     0.0140 ca         1 5F5      -0.136000
      3 C3           1.1540     2.3450     0.0120 ca         1 5F5      -0.171000
      4 C4           2.2640     1.5120     0.0040 ca         1 5F5      -0.082000
      5 C5           2.1090     0.1280    -0.0020 ca         1 5F5      -0.148600
      6 C6           0.8250    -0.4020    -0.0010 ca         1 5F5      -0.048000
      7 C7           3.3250    -0.7940    -0.0120 c          1 5F5       0.924200
      8 C8          -4.0160    -0.6550    -0.0010 cc         1 5F5      -0.243400
      9 O            3.0960    -2.0180    -0.0210 o          1 5F5      -0.821300
     10 O1           4.4400    -0.2410    -0.0110 o          1 5F5      -0.821300
     11 C           -1.6330    -0.1780     0.0100 cc         1 5F5       0.555900
     12 S           -3.0820     0.7780    -0.0300 ss         1 5F5      -0.237300
     13 C9          -3.1920    -1.7330     0.0350 cd         1 5F5       0.354200
     14 N           -1.8590    -1.4560     0.0410 nd         1 5F5      -0.652000
     15 H           -0.9730     2.4810     0.0240 ha         1 5F5       0.105000
     16 H1           1.2810     3.4200     0.0180 ha         1 5F5       0.107000
     17 H2           3.2590     1.9370     0.0040 ha         1 5F5       0.148000
     18 H3           0.6970    -1.4750    -0.0070 ha         1 5F5       0.170000
     19 H6          -3.5250    -2.7610     0.0600 h4         1 5F5       0.029100
     20 H5          -5.0940    -0.6310    -0.0100 h4         1 5F5       0.163000
@<TRIPOS>BOND
     1     1     2 ar  
     2     1     6 ar  
     3     1    11 1   
     4     2     3 ar  
     5     2    15 1   
     6     3     4 ar  
     7     3    16 1   
     8     4     5 ar  
     9     4    17 1   
    10     5     6 ar  
    11     5     7 1   
    12     6    18 1   
    13     7     9 1   
    14     7    10 1   
    15     8    12 1   
    16     8    13 2   
    17     8    20 1   
    18    11    12 1   
    19    11    14 2   
    20    13    14 1   
    21    13    19 1   
@<TRIPOS>SUBSTRUCTURE
     1 5F5         1 TEMP              0 ****  ****    0 ROOT
