@<TRIPOS>MOLECULE
5F5
   20    21     1     0     0
SMALL
No Charge or Current Charge


@<TRIPOS>ATOM
      1 C1          -0.3140     0.4150     0.0070 ca         1 5F5      -0.194500
      2 C2          -0.1270     1.8170     0.0070 ca         1 5F5      -0.118000
      3 C3           1.1650     2.3630     0.0030 ca         1 5F5      -0.153000
      4 C4           2.2910     1.5270     0.0000 ca         1 5F5      -0.064000
      5 C5           2.1390     0.1240     0.0010 ca         1 5F5      -0.148600
      6 C6           0.8320    -0.4180     0.0040 ca         1 5F5      -0.030000
      7 C7           3.3550    -0.7880    -0.0020 c          1 5F5       0.713600
      8 C8          -4.0490    -0.6580     0.0180 cc         1 5F5      -0.305000
      9 O            3.1790    -1.9980    -0.0020 o          1 5F5      -0.716000
     10 O1           4.4670    -0.2790    -0.0050 o          1 5F5      -0.716000
     11 C           -1.6670    -0.1770     0.0110 cc         1 5F5       0.555900
     12 S           -3.1160     0.8090     0.0150 ss         1 5F5      -0.092400
     13 C9          -3.2350    -1.7640     0.0150 cd         1 5F5       0.288900
     14 N           -1.8760    -1.4900     0.0110 nd         1 5F5      -0.652000
     15 H           -0.9740     2.4970     0.0090 ha         1 5F5       0.087000
     16 H1           1.2950     3.4430     0.0030 ha         1 5F5       0.089000
     17 H2           3.2830     1.9760    -0.0030 ha         1 5F5       0.130000
     18 H3           0.7090    -1.5000     0.0050 ha         1 5F5       0.152000
     19 H6          -3.5720    -2.7940     0.0160 h4         1 5F5       0.029100
     20 H5          -5.1300    -0.6160     0.0210 h4         1 5F5       0.145000
@<TRIPOS>BOND
     1     1     2 ar  
     2     1     6 ar  
     3     1    11 1   
     4     2     3 ar  
     5     2    15 1   
     6     3     4 ar  
     7     3    16 1   
     8     4     5 ar  
     9     4    17 1   
    10     5     6 ar  
    11     5     7 1   
    12     6    18 1   
    13     7     9 1   
    14     7    10 1   
    15     8    12 1   
    16     8    13 2   
    17     8    20 1   
    18    11    12 1   
    19    11    14 2   
    20    13    14 1   
    21    13    19 1   
@<TRIPOS>SUBSTRUCTURE
     1 5F5         1 TEMP              0 ****  ****    0 ROOT
