@<TRIPOS>MOLECULE
5F6
   29    31     1     0     0
SMALL
No Charge or Current Charge


@<TRIPOS>ATOM
      1 C1          -2.7900     1.1660     0.0460 ca         1 5F6       0.147000
      2 C2          -3.9620     0.9860     0.8000 ca         1 5F6      -0.104000
      3 C3          -4.3320    -0.2980     1.2350 ca         1 5F6      -0.084000
      4 C11          0.6010     0.1620    -0.3640 ca         1 5F6      -0.166600
      5 C12          0.6760     0.0760     1.0440 ca         1 5F6      -0.065000
      6 C13          1.9230    -0.0050     1.6870 ca         1 5F6      -0.094000
      7 C14          3.1210    -0.0010     0.9540 ca         1 5F6       0.290000
      8 C15          3.0470     0.0900    -0.4580 ca         1 5F6      -0.104000
      9 C16          1.8010     0.1720    -1.1070 ca         1 5F6      -0.020000
     10 C18          5.4480    -0.0740     0.8760 ca         1 5F6       0.364900
     11 C19          5.4570     0.0130    -0.5240 ca         1 5F6      -0.172000
     12 C20          4.2360     0.0970    -1.2100 ca         1 5F6      -0.048000
     13 C4          -3.5260    -1.4030     0.9130 ca         1 5F6      -0.104000
     14 C5          -2.3530    -1.2250     0.1590 ca         1 5F6       0.147000
     15 C6          -1.9790     0.0610    -0.2780 ca         1 5F6      -0.150600
     16 Cl7         -2.3450     2.7940    -0.4600 cl         1 5F6      -0.178500
     17 Cl8         -1.3730    -2.6350    -0.2370 cl         1 5F6      -0.178500
     18 C9          -0.7310     0.2500    -1.0780 c          1 5F6       0.607300
     19 O10         -0.7970     0.4620    -2.2840 o          1 5F6      -0.490100
     20 N17          4.3070    -0.0810     1.6050 nb         1 5F6      -0.664000
     21 H1          -4.5810     1.8440     1.0500 ha         1 5F6       0.137000
     22 H2          -5.2400    -0.4360     1.8190 ha         1 5F6       0.126000
     23 H3          -0.2250     0.0750     1.6550 ha         1 5F6       0.124000
     24 H4           1.9620    -0.0710     2.7710 ha         1 5F6       0.136000
     25 H5           1.7680     0.2390    -2.1940 ha         1 5F6       0.136000
     26 H6           6.3810    -0.1400     1.4340 h4         1 5F6       0.020100
     27 H7           6.4000     0.0150    -1.0630 ha         1 5F6       0.127000
     28 H8           4.2160     0.1660    -2.2960 ha         1 5F6       0.124000
     29 H9          -3.8100    -2.3980     1.2450 ha         1 5F6       0.137000
@<TRIPOS>BOND
     1     1     2 ar  
     2     1    15 ar  
     3     1    16 1   
     4     2     3 ar  
     5     2    21 1   
     6     3    13 ar  
     7     3    22 1   
     8     4     5 ar  
     9     4     9 ar  
    10     4    18 1   
    11     5     6 ar  
    12     5    23 1   
    13     6     7 ar  
    14     6    24 1   
    15     7     8 ar  
    16     7    20 ar  
    17     8     9 ar  
    18     8    12 ar  
    19     9    25 1   
    20    10    11 ar  
    21    10    20 ar  
    22    10    26 1   
    23    11    12 ar  
    24    11    27 1   
    25    12    28 1   
    26    13    14 ar  
    27    13    29 1   
    28    14    15 ar  
    29    14    17 1   
    30    15    18 1   
    31    18    19 2   
@<TRIPOS>SUBSTRUCTURE
     1 5F6         1 TEMP              0 ****  ****    0 ROOT
