@<TRIPOS>MOLECULE
5F6
   29    31     1     0     0
SMALL
abcg2


@<TRIPOS>ATOM
      1 C1          -2.5960     1.1030     0.1730 ca         1 5F6       0.147000
      2 C2          -3.7690     1.0400     0.9060 ca         1 5F6      -0.104000
      3 C3          -4.2940    -0.2030     1.2250 ca         1 5F6      -0.084000
      4 C11          0.6070     0.0440    -0.3900 ca         1 5F6      -0.166600
      5 C12          0.6760    -0.0100     1.0230 ca         1 5F6      -0.065000
      6 C13          1.8830    -0.0080     1.6630 ca         1 5F6      -0.094000
      7 C14          3.0860     0.0460     0.9250 ca         1 5F6       0.290000
      8 C15          3.0210     0.1000    -0.4900 ca         1 5F6      -0.104000
      9 C16          1.7680     0.0990    -1.1280 ca         1 5F6      -0.020000
     10 C18          5.3660     0.0950     0.8960 ca         1 5F6       0.364900
     11 C19          5.4130     0.1500    -0.5140 ca         1 5F6      -0.172000
     12 C20          4.2380     0.1530    -1.2070 ca         1 5F6      -0.048000
     13 C4          -3.6570    -1.3680     0.8250 ca         1 5F6      -0.104000
     14 C5          -2.4850    -1.2720     0.0950 ca         1 5F6       0.147000
     15 C6          -1.9380    -0.0440    -0.2480 ca         1 5F6      -0.150600
     16 CL7         -1.9110     2.6430    -0.2160 cl         1 5F6      -0.178500
     17 CL8         -1.6610    -2.7120    -0.3960 cl         1 5F6      -0.178500
     18 C9          -0.6930     0.0410    -1.0910 c          1 5F6       0.607300
     19 O10         -0.7960     0.1030    -2.2940 o          1 5F6      -0.490100
     20 N17          4.2620     0.0450     1.5940 nb         1 5F6      -0.664000
     21 H1          -4.2660     1.9470     1.2220 ha         1 5F6       0.137000
     22 H2          -5.2100    -0.2650     1.7960 ha         1 5F6       0.126000
     23 H3          -0.2310    -0.0530     1.6120 ha         1 5F6       0.124000
     24 H4           1.9380    -0.0480     2.7430 ha         1 5F6       0.136000
     25 H5           1.7290     0.1390    -2.2100 ha         1 5F6       0.136000
     26 H6           6.2950     0.0930     1.4570 h4         1 5F6       0.020100
     27 H7           6.3690     0.1880    -1.0180 ha         1 5F6       0.127000
     28 H8           4.2230     0.1930    -2.2890 ha         1 5F6       0.124000
     29 H9          -4.0670    -2.3360     1.0770 ha         1 5F6       0.137000
@<TRIPOS>BOND
     1     1     2 ar  
     2     1    15 ar  
     3     1    16 1   
     4     2     3 ar  
     5     2    21 1   
     6     3    13 ar  
     7     3    22 1   
     8     4     5 ar  
     9     4     9 ar  
    10     4    18 1   
    11     5     6 ar  
    12     5    23 1   
    13     6     7 ar  
    14     6    24 1   
    15     7     8 ar  
    16     7    20 ar  
    17     8     9 ar  
    18     8    12 ar  
    19     9    25 1   
    20    10    11 ar  
    21    10    20 ar  
    22    10    26 1   
    23    11    12 ar  
    24    11    27 1   
    25    12    28 1   
    26    13    14 ar  
    27    13    29 1   
    28    14    15 ar  
    29    14    17 1   
    30    15    18 1   
    31    18    19 2   
@<TRIPOS>SUBSTRUCTURE
     1 5F6         1 TEMP              0 ****  ****    0 ROOT
