@<TRIPOS>MOLECULE
5F7
   36    38     1     0     0
SMALL
No Charge or Current Charge


@<TRIPOS>ATOM
      1 C1           4.7360    -0.1370    -1.9100 ca         1 5F7       0.369900
      2 C2           4.9460    -0.2380    -0.5310 ca         1 5F7      -0.273000
      3 C3           3.8400    -0.1640     0.3350 ca         1 5F7       0.179100
      4 C12         -2.3440     0.0820     0.3090 ca         1 5F7       0.284000
      5 C13         -3.2870     1.1320     0.1440 ca         1 5F7       0.117500
      6 C14         -4.5630     0.8710    -0.3860 ca         1 5F7      -0.102000
      7 C15         -4.9230    -0.4330    -0.7600 ca         1 5F7      -0.093000
      8 C16         -4.0030    -1.4810    -0.6060 ca         1 5F7      -0.102000
      9 C17         -2.7240    -1.2320    -0.0780 ca         1 5F7       0.117500
     10 C21          5.2590    -0.4330     2.3420 c3         1 5F7       0.147900
     11 C22         -0.9340     0.6480     2.2900 c3         1 5F7       0.223100
     12 C4           2.5560     0.0090    -0.2280 ca         1 5F7      -0.058000
     13 C5           2.4380     0.1000    -1.6360 ca         1 5F7       0.254000
     14 N6           3.5130     0.0270    -2.4550 nb         1 5F7      -0.674000
     15 C7           1.4040     0.0900     0.5890 ca         1 5F7      -0.159000
     16 C8           0.1220     0.2590     0.0280 ca         1 5F7       0.330000
     17 C9           0.0160     0.3490    -1.3740 ca         1 5F7      -0.134000
     18 C10          1.1580     0.2700    -2.1900 ca         1 5F7      -0.061000
     19 N11         -1.0420     0.3370     0.8420 nh         1 5F7      -0.855200
     20 Cl1         -1.6190    -2.6020     0.1010 cl         1 5F7      -0.174000
     21 Cl2         -2.8900     2.8040     0.5630 cl         1 5F7      -0.174000
     22 O20          3.9800    -0.2560     1.7080 os         1 5F7      -0.335100
     23 H1           5.5740    -0.1910    -2.6050 h4         1 5F7       0.014100
     24 H2           5.9590    -0.3690    -0.1670 ha         1 5F7       0.123000
     25 H3          -5.2730     1.6860    -0.5110 ha         1 5F7       0.136000
     26 H4          -5.9120    -0.6300    -1.1700 ha         1 5F7       0.125000
     27 H5          -4.2810    -2.4920    -0.8950 ha         1 5F7       0.136000
     28 H6           5.1400    -0.4800     3.4320 h1         1 5F7       0.044033
     29 H7           5.7330    -1.3660     2.0120 h1         1 5F7       0.044033
     30 H8           5.9290     0.4050     2.1100 h1         1 5F7       0.044033
     31 H9          -0.5190    -0.2070     2.8410 h1         1 5F7       0.042033
     32 H10         -0.2970     1.5290     2.4500 h1         1 5F7       0.042033
     33 H11         -1.9210     0.8750     2.7150 h1         1 5F7       0.042033
     34 H12          1.5110     0.0070     1.6650 ha         1 5F7       0.128000
     35 H13         -0.9510     0.4910    -1.8460 ha         1 5F7       0.120000
     36 H14          1.0500     0.3440    -3.2690 ha         1 5F7       0.130000
@<TRIPOS>BOND
     1     1     2 ar  
     2     1    14 ar  
     3     1    23 1   
     4     2     3 ar  
     5     2    24 1   
     6     3    12 ar  
     7     3    22 1   
     8     4     5 ar  
     9     4     9 ar  
    10     4    19 1   
    11     5     6 ar  
    12     5    21 1   
    13     6     7 ar  
    14     6    25 1   
    15     7     8 ar  
    16     7    26 1   
    17     8     9 ar  
    18     8    27 1   
    19     9    20 1   
    20    10    22 1   
    21    10    28 1   
    22    10    29 1   
    23    10    30 1   
    24    11    19 1   
    25    11    31 1   
    26    11    32 1   
    27    11    33 1   
    28    12    13 ar  
    29    12    15 ar  
    30    13    14 ar  
    31    13    18 ar  
    32    15    16 ar  
    33    15    34 1   
    34    16    17 ar  
    35    16    19 1   
    36    17    18 ar  
    37    17    35 1   
    38    18    36 1   
@<TRIPOS>SUBSTRUCTURE
     1 5F7         1 TEMP              0 ****  ****    0 ROOT
