@<TRIPOS>MOLECULE
5F7
   36    38     1     0     0
SMALL
bcc


@<TRIPOS>ATOM
      1 C1           4.6470    -0.1290    -1.9010 ca         1 5F7       0.435200
      2 C2           4.8980    -0.1840    -0.5170 ca         1 5F7      -0.356300
      3 C3           3.8340    -0.1090     0.3500 ca         1 5F7       0.179100
      4 C12         -2.2860     0.1100     0.2910 ca         1 5F7       0.145600
      5 C13         -3.1550     1.1740     0.0500 ca         1 5F7       0.025900
      6 C14         -4.4210     0.9790    -0.4800 ca         1 5F7      -0.120000
      7 C15         -4.8320    -0.3090    -0.7840 ca         1 5F7      -0.111000
      8 C16         -3.9970    -1.3930    -0.5580 ca         1 5F7      -0.120000
      9 C17         -2.7410    -1.1720    -0.0190 ca         1 5F7       0.025900
     10 C21          5.2050    -0.2850     2.2700 c3         1 5F7       0.124700
     11 C22         -0.9240     0.3540     2.2940 c3         1 5F7       0.223100
     12 C4           2.5190     0.0220    -0.1860 ca         1 5F7      -0.123300
     13 C5           2.4040     0.0630    -1.5940 ca         1 5F7       0.384600
     14 N6           3.4630    -0.0110    -2.4370 nb         1 5F7      -0.674000
     15 C7           1.3720     0.0980     0.6290 ca         1 5F7      -0.177000
     16 C8           0.1140     0.2220     0.0700 ca         1 5F7       0.191600
     17 C9           0.0030     0.2690    -1.3470 ca         1 5F7      -0.152000
     18 C10          1.1070     0.1890    -2.1420 ca         1 5F7      -0.144300
     19 N11         -1.0190     0.3300     0.8500 nh         1 5F7      -0.578400
     20 CL1         -1.6990    -2.5130     0.2850 cl         1 5F7      -0.082400
     21 CL2         -2.6250     2.7720     0.4210 cl         1 5F7      -0.082400
     22 O20          3.9240    -0.1490     1.6790 os         1 5F7      -0.311900
     23 H1           5.4900    -0.1890    -2.5820 h4         1 5F7       0.014100
     24 H2           5.9190    -0.2840    -0.1750 ha         1 5F7       0.141000
     25 H3          -5.0740     1.8210    -0.6560 ha         1 5F7       0.154000
     26 H4          -5.8160    -0.4720    -1.2020 ha         1 5F7       0.143000
     27 H5          -4.3230    -2.3970    -0.7900 ha         1 5F7       0.154000
     28 H6           5.0470    -0.3090     3.3440 h1         1 5F7       0.044033
     29 H7           5.6930    -1.2120     1.9590 h1         1 5F7       0.044033
     30 H8           5.8530     0.5580     2.0230 h1         1 5F7       0.044033
     31 H9          -0.5670    -0.5960     2.7030 h1         1 5F7       0.042033
     32 H10         -0.2540     1.1480     2.6260 h1         1 5F7       0.042033
     33 H11         -1.9070     0.5540     2.7120 h1         1 5F7       0.042033
     34 H12          1.4900     0.0480     1.7010 ha         1 5F7       0.146000
     35 H13         -0.9680     0.3790    -1.8120 ha         1 5F7       0.138000
     36 H14          1.0060     0.2270    -3.2190 ha         1 5F7       0.148000
@<TRIPOS>BOND
     1     1     2 ar  
     2     1    14 ar  
     3     1    23 1   
     4     2     3 ar  
     5     2    24 1   
     6     3    12 ar  
     7     3    22 1   
     8     4     5 ar  
     9     4     9 ar  
    10     4    19 1   
    11     5     6 ar  
    12     5    21 1   
    13     6     7 ar  
    14     6    25 1   
    15     7     8 ar  
    16     7    26 1   
    17     8     9 ar  
    18     8    27 1   
    19     9    20 1   
    20    10    22 1   
    21    10    28 1   
    22    10    29 1   
    23    10    30 1   
    24    11    19 1   
    25    11    31 1   
    26    11    32 1   
    27    11    33 1   
    28    12    13 ar  
    29    12    15 ar  
    30    13    14 ar  
    31    13    18 ar  
    32    15    16 ar  
    33    15    34 1   
    34    16    17 ar  
    35    16    19 1   
    36    17    18 ar  
    37    17    35 1   
    38    18    36 1   
@<TRIPOS>SUBSTRUCTURE
     1 5F7         1 TEMP              0 ****  ****    0 ROOT
