@<TRIPOS>MOLECULE
5F8
   23    24     1     0     0
SMALL
bcc


@<TRIPOS>ATOM
      1 O1          -4.3390     0.4640    -0.3610 o          1 5F8      -0.822800
      2 C           -3.1750     0.9020    -0.4150 c          1 5F8       0.924200
      3 O           -2.8260     2.0710    -0.6720 o          1 5F8      -0.822800
      4 C1          -2.0580    -0.0990    -0.1370 ca         1 5F8      -0.138600
      5 C6          -2.3460    -1.4360     0.1220 ca         1 5F8      -0.091000
      6 C5          -1.3230    -2.3430     0.3620 ca         1 5F8      -0.168000
      7 C4          -0.0010    -1.9250     0.3490 ca         1 5F8      -0.139000
      8 C3           0.3130    -0.5900     0.0950 cp         1 5F8      -0.092000
      9 C2          -0.7270     0.3070    -0.1480 ca         1 5F8      -0.084000
     10 C7           1.7150    -0.1350     0.0860 cp         1 5F8      -0.104300
     11 C11          2.0720     1.1110     0.6060 ca         1 5F8       0.403200
     12 N            3.3100     1.5810     0.6270 nb         1 5F8      -0.676000
     13 C10          4.2760     0.8210     0.1250 ca         1 5F8       0.374200
     14 C9           4.0430    -0.4370    -0.4110 ca         1 5F8      -0.256300
     15 C8           2.7450    -0.9180    -0.4330 ca         1 5F8      -0.102000
     16 H3          -3.3760    -1.7670     0.1370 ha         1 5F8       0.147000
     17 H2          -1.5550    -3.3800     0.5670 ha         1 5F8       0.106000
     18 H1           0.7870    -2.6390     0.5590 ha         1 5F8       0.102000
     19 H           -0.5040     1.3420    -0.3730 ha         1 5F8       0.150000
     20 H7           1.3100     1.7500     1.0420 h4         1 5F8       0.032100
     21 H6           5.2810     1.2280     0.1520 h4         1 5F8       0.002100
     22 H5           4.8610    -1.0200    -0.8110 ha         1 5F8       0.125000
     23 H4           2.5320    -1.8870    -0.8660 ha         1 5F8       0.134000
@<TRIPOS>BOND
     1     1     2 1   
     2     2     3 1   
     3     2     4 1   
     4     4     5 ar  
     5     4     9 ar  
     6     5     6 ar  
     7     5    16 1   
     8     6     7 ar  
     9     6    17 1   
    10     7     8 ar  
    11     7    18 1   
    12     8     9 ar  
    13     8    10 1   
    14     9    19 1   
    15    10    11 ar  
    16    10    15 ar  
    17    11    12 ar  
    18    11    20 1   
    19    12    13 ar  
    20    13    14 ar  
    21    13    21 1   
    22    14    15 ar  
    23    14    22 1   
    24    15    23 1   
@<TRIPOS>SUBSTRUCTURE
     1 5F8         1 TEMP              0 ****  ****    0 ROOT
