@<TRIPOS>MOLECULE
5F8
   23    24     1     0     0
SMALL
No Charge or Current Charge


@<TRIPOS>ATOM
      1 O1          -4.3890     0.4910    -0.3660 o          1 5F8      -0.717500
      2 C           -3.2360     0.9010    -0.3620 c          1 5F8       0.713600
      3 O           -2.9520     2.0770    -0.5380 o          1 5F8      -0.717500
      4 C1          -2.1110    -0.0930    -0.1250 ca         1 5F8      -0.138600
      5 C6          -2.3910    -1.4600     0.1010 ca         1 5F8      -0.073000
      6 C5          -1.3490    -2.3750     0.3160 ca         1 5F8      -0.150000
      7 C4          -0.0150    -1.9420     0.3080 ca         1 5F8      -0.121000
      8 C3           0.3090    -0.5820     0.0870 cp         1 5F8      -0.092000
      9 C2          -0.7600     0.3280    -0.1280 ca         1 5F8      -0.066000
     10 C7           1.7350    -0.1170     0.0810 cp         1 5F8      -0.039000
     11 C11          2.1010     1.1810     0.5360 ca         1 5F8       0.337900
     12 N            3.3730     1.6520     0.5550 nb         1 5F8      -0.676000
     13 C10          4.3520     0.8330     0.1110 ca         1 5F8       0.308900
     14 C9           4.1030    -0.4660    -0.3600 ca         1 5F8      -0.173000
     15 C8           2.7850    -0.9510    -0.3770 ca         1 5F8      -0.084000
     16 H3          -3.4190    -1.8180     0.1110 ha         1 5F8       0.129000
     17 H2          -1.5770    -3.4240     0.4910 ha         1 5F8       0.088000
     18 H1           0.7730    -2.6690     0.4910 ha         1 5F8       0.084000
     19 H           -0.5330     1.3750    -0.3150 ha         1 5F8       0.132000
     20 H7           1.3420     1.8650     0.9130 h4         1 5F8       0.032100
     21 H6           5.3660     1.2320     0.1340 h4         1 5F8       0.002100
     22 H5           4.9250    -1.0840    -0.7090 ha         1 5F8       0.107000
     23 H4           2.5810    -1.9510    -0.7520 ha         1 5F8       0.116000
@<TRIPOS>BOND
     1     1     2 1   
     2     2     3 1   
     3     2     4 1   
     4     4     5 ar  
     5     4     9 ar  
     6     5     6 ar  
     7     5    16 1   
     8     6     7 ar  
     9     6    17 1   
    10     7     8 ar  
    11     7    18 1   
    12     8     9 ar  
    13     8    10 1   
    14     9    19 1   
    15    10    11 ar  
    16    10    15 ar  
    17    11    12 ar  
    18    11    20 1   
    19    12    13 ar  
    20    13    14 ar  
    21    13    21 1   
    22    14    15 ar  
    23    14    22 1   
    24    15    23 1   
@<TRIPOS>SUBSTRUCTURE
     1 5F8         1 TEMP              0 ****  ****    0 ROOT
