@<TRIPOS>MOLECULE
5FB
   42    44     1     0     0
SMALL
abcg2


@<TRIPOS>ATOM
      1 C15         -0.4410     0.3840    -1.4440 ca         1 5FB      -0.067000
      2 C20          3.7940    -2.1280    -0.8340 ca         1 5FB      -0.009000
      3 C21          5.0240    -1.5410    -0.5460 ca         1 5FB      -0.065000
      4 C22          6.2220    -2.3090    -0.6270 cg         1 5FB       0.325000
      5 C24          5.0870    -0.2000    -0.1770 ca         1 5FB       0.008000
      6 C26          3.9870     1.9930     0.3180 c3         1 5FB       0.373300
      7 C01          0.3530    -1.3800     2.9350 c3         1 5FB       0.145900
      8 O02          0.7490    -0.6300     1.8010 os         1 5FB      -0.324100
      9 C03         -0.1140    -0.4990     0.7870 ca         1 5FB       0.137100
     10 C04         -1.4080    -1.0030     0.7580 ca         1 5FB      -0.190000
     11 C05         -2.2230    -0.8160    -0.3590 ca         1 5FB      -0.051300
     12 C06         -3.6330    -1.3350    -0.3380 c3         1 5FB      -0.011100
     13 C07         -4.5440    -0.4370     0.5010 c5         1 5FB      -0.039700
     14 S08         -4.6150     1.2640    -0.1370 ss         1 5FB      -0.258600
     15 C09         -6.3750     1.2350    -0.2630 c          1 5FB       0.593600
     16 O10         -7.0430     2.1570    -0.6420 o          1 5FB      -0.457000
     17 N11         -6.8570     0.0090     0.1290 ns         1 5FB      -0.482500
     18 C12         -5.9720    -0.9510     0.5310 c          1 5FB       0.576000
     19 O13         -6.2770    -2.0670     0.8640 o          1 5FB      -0.485000
     20 C14         -1.7370    -0.1200    -1.4560 ca         1 5FB      -0.122000
     21 C16          0.3540     0.1970    -0.3350 ca         1 5FB       0.053100
     22 O17          1.6150     0.7480    -0.3000 os         1 5FB      -0.221200
     23 C18          2.6950    -0.0450    -0.3790 ca         1 5FB       0.223100
     24 C19          2.6350    -1.3840    -0.7530 ca         1 5FB      -0.198000
     25 N23          7.1890    -2.9320    -0.6910 n1         1 5FB      -0.447000
     26 C25          3.9300     0.5510    -0.0910 ca         1 5FB      -0.241300
     27 F27          3.2820     2.2280     1.4290 f          1 5FB      -0.109000
     28 F28          5.2410     2.3850     0.5660 f          1 5FB      -0.109000
     29 F29          3.5080     2.8050    -0.6320 f          1 5FB      -0.109000
     30 H15         -0.0500     0.9250    -2.2960 ha         1 5FB       0.140000
     31 H20          3.7410    -3.1680    -1.1250 ha         1 5FB       0.129000
     32 H24          6.0490     0.2410     0.0430 ha         1 5FB       0.145000
     33 H01         -0.4950    -0.9220     3.4480 h1         1 5FB       0.047033
     34 H01A         0.0970    -2.4080     2.6700 h1         1 5FB       0.047033
     35 H01B         1.2070    -1.3900     3.6070 h1         1 5FB       0.047033
     36 H04         -1.8000    -1.5500     1.6070 ha         1 5FB       0.123000
     37 H06         -4.0260    -1.4080    -1.3540 hc         1 5FB       0.072200
     38 H06A        -3.6600    -2.3370     0.0940 hc         1 5FB       0.072200
     39 H07         -4.1840    -0.4010     1.5330 h1         1 5FB       0.114700
     40 HN11        -7.8530    -0.1760     0.0970 hn         1 5FB       0.354500
     41 H14         -2.3620     0.0280    -2.3270 ha         1 5FB       0.130000
     42 H19          1.6890    -1.8510    -0.9890 ha         1 5FB       0.136000
@<TRIPOS>BOND
     1     1    20 ar  
     2     1    21 ar  
     3     1    30 1   
     4     2     3 ar  
     5     2    24 ar  
     6     2    31 1   
     7     3     4 1   
     8     3     5 ar  
     9     4    25 3   
    10     5    26 ar  
    11     5    32 1   
    12     6    26 1   
    13     6    27 1   
    14     6    28 1   
    15     6    29 1   
    16     7     8 1   
    17     7    33 1   
    18     7    34 1   
    19     7    35 1   
    20     8     9 1   
    21     9    10 ar  
    22     9    21 ar  
    23    10    11 ar  
    24    10    36 1   
    25    11    12 1   
    26    11    20 ar  
    27    12    13 1   
    28    12    37 1   
    29    12    38 1   
    30    13    14 1   
    31    13    18 1   
    32    13    39 1   
    33    14    15 1   
    34    15    16 2   
    35    15    17 1   
    36    17    18 1   
    37    17    40 1   
    38    18    19 2   
    39    20    41 1   
    40    21    22 1   
    41    22    23 1   
    42    23    24 ar  
    43    23    26 ar  
    44    24    42 1   
@<TRIPOS>SUBSTRUCTURE
     1 5FB         1 TEMP              0 ****  ****    0 ROOT
