@<TRIPOS>MOLECULE
5FB
   42    44     1     0     0
SMALL
No Charge or Current Charge


@<TRIPOS>ATOM
      1 C15         -0.5180     0.4700    -1.7060 ca         1 5FB      -0.067000
      2 C20          3.8970    -2.1890    -0.8720 ca         1 5FB      -0.009000
      3 C21          5.0640    -1.6530    -0.3020 ca         1 5FB      -0.065000
      4 C22          6.2300    -2.4780    -0.1440 cg         1 5FB       0.325000
      5 C24          5.0920    -0.3080     0.1120 ca         1 5FB       0.008000
      6 C26          3.9680     1.9800     0.4160 c3         1 5FB       0.373300
      7 C01          0.5070    -1.3020     2.7680 c3         1 5FB       0.145900
      8 O02          0.8490    -0.6000     1.5600 os         1 5FB      -0.324100
      9 C03         -0.0440    -0.4330     0.5150 ca         1 5FB       0.137100
     10 C04         -1.3700    -0.9220     0.5830 ca         1 5FB      -0.190000
     11 C05         -2.2640    -0.7180    -0.4860 ca         1 5FB      -0.051300
     12 C06         -3.6920    -1.2430    -0.3970 c3         1 5FB      -0.011100
     13 C07         -4.5780    -0.4470     0.5930 c5         1 5FB      -0.039700
     14 S08         -4.7660     1.3290     0.0300 ss         1 5FB      -0.258600
     15 C09         -6.5640     1.1860     0.0220 c          1 5FB       0.593600
     16 O10         -7.3640     2.0560    -0.2730 o          1 5FB      -0.457000
     17 N11         -6.8890    -0.0750     0.3880 ns         1 5FB      -0.482500
     18 C12         -5.9980    -1.0460     0.7110 c          1 5FB       0.576000
     19 O13         -6.3210    -2.1810     1.0230 o          1 5FB      -0.485000
     20 C14         -1.8320    -0.0180    -1.6290 ca         1 5FB      -0.122000
     21 C16          0.3780     0.2570    -0.6470 ca         1 5FB       0.053100
     22 O17          1.6600     0.7520    -0.7630 os         1 5FB      -0.221200
     23 C18          2.7790    -0.0370    -0.6020 ca         1 5FB       0.223100
     24 C19          2.7600    -1.3800    -1.0240 ca         1 5FB      -0.198000
     25 N23          7.1820    -3.1400    -0.0120 n1         1 5FB      -0.447000
     26 C25          3.9500     0.5150    -0.0380 ca         1 5FB      -0.241300
     27 F27          3.0360     2.2210     1.3660 f          1 5FB      -0.109000
     28 F28          5.1570     2.3560     0.9410 f          1 5FB      -0.109000
     29 F29          3.7190     2.8240    -0.6110 f          1 5FB      -0.109000
     30 H15         -0.1900     1.0100    -2.5910 ha         1 5FB       0.140000
     31 H20          3.8690    -3.2270    -1.1990 ha         1 5FB       0.129000
     32 H24          6.0070     0.0890     0.5490 ha         1 5FB       0.145000
     33 H01         -0.3300    -0.8110     3.2810 h1         1 5FB       0.047033
     34 H01A         0.2280    -2.3400     2.5490 h1         1 5FB       0.047033
     35 H01B         1.3640    -1.3170     3.4520 h1         1 5FB       0.047033
     36 H04         -1.7220    -1.4580     1.4590 ha         1 5FB       0.123000
     37 H06         -4.1590    -1.2410    -1.3900 hc         1 5FB       0.072200
     38 H06A        -3.6620    -2.2970    -0.0910 hc         1 5FB       0.072200
     39 H07         -4.1310    -0.4650     1.5950 h1         1 5FB       0.114700
     40 HN11        -7.8690    -0.3120     0.4190 hn         1 5FB       0.354500
     41 H14         -2.5160     0.1530    -2.4580 ha         1 5FB       0.130000
     42 H19          1.8650    -1.8010    -1.4730 ha         1 5FB       0.136000
@<TRIPOS>BOND
     1     1    20 ar  
     2     1    21 ar  
     3     1    30 1   
     4     2     3 ar  
     5     2    24 ar  
     6     2    31 1   
     7     3     4 1   
     8     3     5 ar  
     9     4    25 3   
    10     5    26 ar  
    11     5    32 1   
    12     6    26 1   
    13     6    27 1   
    14     6    28 1   
    15     6    29 1   
    16     7     8 1   
    17     7    33 1   
    18     7    34 1   
    19     7    35 1   
    20     8     9 1   
    21     9    10 ar  
    22     9    21 ar  
    23    10    11 ar  
    24    10    36 1   
    25    11    12 1   
    26    11    20 ar  
    27    12    13 1   
    28    12    37 1   
    29    12    38 1   
    30    13    14 1   
    31    13    18 1   
    32    13    39 1   
    33    14    15 1   
    34    15    16 2   
    35    15    17 1   
    36    17    18 1   
    37    17    40 1   
    38    18    19 2   
    39    20    41 1   
    40    21    22 1   
    41    22    23 1   
    42    23    24 ar  
    43    23    26 ar  
    44    24    42 1   
@<TRIPOS>SUBSTRUCTURE
     1 5FB         1 TEMP              0 ****  ****    0 ROOT
