@<TRIPOS>MOLECULE
5FD
   33    35     1     0     0
SMALL
abcg2


@<TRIPOS>ATOM
      1 O2           1.4340     1.1480     2.4410 oh         1 5FD      -0.693000
      2 C2           1.3130     0.7310     1.1240 c5         1 5FD       0.157300
      3 C3           2.1050    -0.5210     0.7880 c5         1 5FD       0.138300
      4 O3           3.3870    -0.3960     1.3470 oh         1 5FD      -0.687000
      5 C4           2.1150    -0.4470    -0.7480 c5         1 5FD       0.095300
      6 C5           0.9900    -1.2540    -1.3500 c3         1 5FD       0.176600
      7 F19          1.0010    -1.1190    -2.7330 f          1 5FD      -0.254000
      8 O4           1.9710     0.9270    -1.0940 os         1 5FD      -0.455000
      9 C1           1.8650     1.7120     0.0830 c5         1 5FD       0.433500
     10 N9           1.0560     2.8570    -0.1450 nh         1 5FD      -0.798600
     11 C8           1.5260     4.0880    -0.4880 c2         1 5FD       0.638100
     12 N7           0.6630     5.0060    -0.6770 n2         1 5FD      -0.638900
     13 C10         -0.6380     4.3440    -0.5360 c5         1 5FD      -0.019800
     14 C9          -0.3540     3.0050     0.1760 c5         1 5FD       0.398700
     15 N3          -0.5170     3.0010     1.6160 n2         1 5FD      -0.731900
     16 C7          -1.1910     3.9340     2.1520 c2         1 5FD       0.685100
     17 N1          -1.7820     4.9810     1.5130 nu         1 5FD      -0.884400
     18 C6          -1.6180     5.2460     0.1740 c2         1 5FD       0.636200
     19 N6          -2.2350     6.2190    -0.3490 n2         1 5FD      -0.801100
     20 HO2          0.7580     1.8470     2.5290 ho         1 5FD       0.543000
     21 H2           0.2650     0.5160     0.8670 h1         1 5FD       0.041700
     22 H3'          1.6030    -1.4300     1.1430 h1         1 5FD       0.057700
     23 HO3          3.9250    -1.1350     1.0470 ho         1 5FD       0.503000
     24 H4           3.0670    -0.8250    -1.1410 h1         1 5FD       0.075700
     25 H5'1         0.0150    -0.9220    -0.9840 h1         1 5FD       0.045700
     26 H5'2         1.1170    -2.3100    -1.1060 h1         1 5FD       0.045700
     27 H1           2.8590     2.0630     0.3900 h2         1 5FD       0.082700
     28 HC8          2.5950     4.2420    -0.5900 h5         1 5FD       0.058800
     29 H55         -1.0390     4.1440    -1.5350 h1         1 5FD       0.087700
     30 H44         -0.9520     2.1940    -0.2450 h2         1 5FD       0.090700
     31 HC2         -1.3390     3.9340     3.2260 h5         1 5FD       0.042800
     32 HN1         -2.3480     5.6180     2.0530 hn         1 5FD       0.516000
     33 HN2         -2.0110     6.2940    -1.3350 hn         1 5FD       0.411400
@<TRIPOS>BOND
     1     1     2 1   
     2     1    20 1   
     3     2     3 1   
     4     2     9 1   
     5     2    21 1   
     6     3     4 1   
     7     3     5 1   
     8     3    22 1   
     9     4    23 1   
    10     5     6 1   
    11     5     8 1   
    12     5    24 1   
    13     6     7 1   
    14     6    25 1   
    15     6    26 1   
    16     8     9 1   
    17     9    10 1   
    18     9    27 1   
    19    10    11 1   
    20    10    14 1   
    21    11    12 2   
    22    11    28 1   
    23    12    13 1   
    24    13    14 1   
    25    13    18 1   
    26    13    29 1   
    27    14    15 1   
    28    14    30 1   
    29    15    16 2   
    30    16    17 1   
    31    16    31 1   
    32    17    18 1   
    33    17    32 1   
    34    18    19 2   
    35    19    33 1   
@<TRIPOS>SUBSTRUCTURE
     1 5FD         1 TEMP              0 ****  ****    0 ROOT
