@<TRIPOS>MOLECULE
5FD
   33    35     1     0     0
SMALL
No Charge or Current Charge


@<TRIPOS>ATOM
      1 O2           0.4160     0.6870     2.2290 oh         1 5FD      -0.693000
      2 C2           0.8800     0.4290     0.8860 c5         1 5FD       0.157300
      3 C3           2.0590    -0.5930     0.8020 c5         1 5FD       0.138300
      4 O3           3.1400    -0.2910     1.7090 oh         1 5FD      -0.687000
      5 C4           2.4770    -0.3550    -0.6900 c5         1 5FD       0.095300
      6 C5           1.5970    -1.1080    -1.7270 c3         1 5FD       0.176600
      7 F19          2.0690    -0.9530    -2.9900 f          1 5FD      -0.254000
      8 O4           2.3550     1.0820    -0.8950 os         1 5FD      -0.455000
      9 C1           1.5800     1.6540     0.1820 c5         1 5FD       0.433500
     10 N9           0.5500     2.5470    -0.4090 nh         1 5FD      -0.798600
     11 C8           1.0880     3.6350    -1.0610 c2         1 5FD       0.638100
     12 N7           0.3450     4.6840    -1.1300 n2         1 5FD      -0.638900
     13 C10         -0.9380     4.2500    -0.4670 c5         1 5FD      -0.019800
     14 C9          -0.5570     3.0220     0.4210 c5         1 5FD       0.398700
     15 N3          -0.0170     3.3590     1.7800 n2         1 5FD      -0.731900
     16 C7          -0.5800     4.3660     2.3600 c2         1 5FD       0.685100
     17 N1          -1.4490     5.2060     1.7330 nu         1 5FD      -0.884400
     18 C6          -1.5940     5.3040     0.4090 c2         1 5FD       0.636200
     19 N6          -2.2250     6.3250    -0.0010 n2         1 5FD      -0.801100
     20 HO2          0.2470     1.6730     2.2440 ho         1 5FD       0.543000
     21 H2           0.0330     0.0820     0.2780 h1         1 5FD       0.041700
     22 H3'          1.7000    -1.6210     0.9610 h1         1 5FD       0.057700
     23 HO3          3.7050    -1.0960     1.7720 ho         1 5FD       0.503000
     24 H4           3.5200    -0.6540    -0.8590 h1         1 5FD       0.075700
     25 H5'1         0.5640    -0.7400    -1.6980 h1         1 5FD       0.045700
     26 H5'2         1.5920    -2.1800    -1.4940 h1         1 5FD       0.045700
     27 H1           2.2480     2.1760     0.8830 h2         1 5FD       0.082700
     28 HC8          2.1080     3.5580    -1.4500 h5         1 5FD       0.058800
     29 H55         -1.6490     3.9310    -1.2410 h1         1 5FD       0.087700
     30 H44         -1.3900     2.3060     0.4830 h2         1 5FD       0.090700
     31 HC2         -0.3270     4.6700     3.3790 h5         1 5FD       0.042800
     32 HN1         -1.7320     6.0300     2.2470 hn         1 5FD       0.516000
     33 HN2         -2.2090     6.3070    -1.0310 hn         1 5FD       0.411400
@<TRIPOS>BOND
     1     1     2 1   
     2     1    20 1   
     3     2     3 1   
     4     2     9 1   
     5     2    21 1   
     6     3     4 1   
     7     3     5 1   
     8     3    22 1   
     9     4    23 1   
    10     5     6 1   
    11     5     8 1   
    12     5    24 1   
    13     6     7 1   
    14     6    25 1   
    15     6    26 1   
    16     8     9 1   
    17     9    10 1   
    18     9    27 1   
    19    10    11 1   
    20    10    14 1   
    21    11    12 2   
    22    11    28 1   
    23    12    13 1   
    24    13    14 1   
    25    13    18 1   
    26    13    29 1   
    27    14    15 1   
    28    14    30 1   
    29    15    16 2   
    30    16    17 1   
    31    16    31 1   
    32    17    18 1   
    33    17    32 1   
    34    18    19 2   
    35    19    33 1   
@<TRIPOS>SUBSTRUCTURE
     1 5FD         1 TEMP              0 ****  ****    0 ROOT
