@<TRIPOS>MOLECULE
5FE
   96    95     1     0     0
SMALL
No Charge or Current Charge


@<TRIPOS>ATOM
      1 C22         -9.9890     2.3390     1.2250 c3         1 5FE      -0.154400
      2 C23         -9.7750     3.8520     1.5010 c3         1 5FE      -0.053700
      3 C39         -8.5800     4.4320     0.7060 c3         1 5FE      -0.090600
      4 C24        -11.0650     4.6570     1.2300 c3         1 5FE      -0.090600
      5 C21         -8.7850     1.4880     1.6420 c          1 5FE       0.605100
      6 O21         -8.5170     1.2560     2.8130 o          1 5FE      -0.614100
      7 N20         -8.0410     0.9840     0.5990 ns         1 5FE      -0.492900
      8 C19         -6.8280     0.1430     0.7360 c3         1 5FE       0.034700
      9 C18         -5.7430     0.6030    -0.2830 c          1 5FE       0.588100
     10 O18         -5.9720     1.3880    -1.1950 o          1 5FE      -0.603100
     11 C36         -7.1560    -1.3800     0.6080 c3         1 5FE      -0.066700
     12 C37         -7.7560    -1.7560    -0.7700 c3         1 5FE      -0.089600
     13 C38         -8.0510    -1.8930     1.7610 c3         1 5FE      -0.089600
     14 N17         -4.4900     0.0590    -0.0880 ns         1 5FE      -0.490900
     15 C16         -3.2970     0.3370    -0.9220 c3         1 5FE       0.043700
     16 C15         -2.5630    -1.0090    -1.1980 c          1 5FE       0.587100
     17 O15         -2.5610    -1.9370    -0.3980 o          1 5FE      -0.588100
     18 C33         -2.3740     1.3990    -0.2370 c3         1 5FE      -0.068700
     19 C34         -3.1250     2.7090     0.1190 c3         1 5FE      -0.091100
     20 C35         -1.1100     1.7270    -1.0710 c3         1 5FE      -0.091100
     21 N14         -1.9350    -1.1070    -2.4270 ns         1 5FE      -0.503900
     22 O9           2.6490    -3.7090    -1.2030 o          1 5FE      -0.593100
     23 C11          0.2800    -2.3230    -2.6780 c3         1 5FE       0.177300
     24 O11          0.8740    -1.1450    -3.2380 oh         1 5FE      -0.635000
     25 C12         -1.2610    -2.3300    -2.9410 c3         1 5FE       0.001700
     26 C13         -1.6450    -2.6120    -4.4250 c3         1 5FE       0.293000
     27 N8           2.8450    -1.5570    -0.4840 ns         1 5FE      -0.502900
     28 C7           4.2990    -1.5520    -0.2100 c3         1 5FE       0.039700
     29 C6           4.6630    -0.3950     0.7660 c          1 5FE       0.597100
     30 O6           3.8680     0.4780     1.0910 o          1 5FE      -0.593100
     31 C29          5.1020    -1.4650    -1.5300 c3         1 5FE      -0.109100
     32 N5           5.9570    -0.4180     1.2510 ns         1 5FE      -0.510900
     33 O1           7.5110     3.6900    -1.2460 os         1 5FE      -0.445100
     34 O2           7.4850     4.7730     0.7790 o          1 5FE      -0.469000
     35 C3           7.3320     1.6950     1.5100 c3         1 5FE       0.176300
     36 O3           8.3800     1.1320     0.7100 oh         1 5FE      -0.632000
     37 C4           6.5230     0.5600     2.2180 c3         1 5FE       0.002700
     38 C25          7.3020    -0.1520     3.3650 c3         1 5FE       0.293000
     39 CA           8.2160     4.7770    -1.8760 c3         1 5FE       0.151900
     40 H221       -10.1930     2.2040     0.1560 hc         1 5FE       0.059700
     41 H222       -10.8570     2.0020     1.8050 hc         1 5FE       0.059700
     42 H23         -9.5430     3.9660     2.5690 hc         1 5FE       0.066700
     43 H391        -8.4550     5.5000     0.9220 hc         1 5FE       0.035033
     44 H392        -7.6440     3.9280     0.9730 hc         1 5FE       0.035033
     45 H393        -8.7370     4.3180    -0.3740 hc         1 5FE       0.035033
     46 H241       -11.8950     4.2780     1.8400 hc         1 5FE       0.035033
     47 H242       -10.9220     5.7160     1.4770 hc         1 5FE       0.035033
     48 H243       -11.3550     4.5870     0.1740 hc         1 5FE       0.035033
     49 H20         -8.3220     1.2640    -0.3340 hn         1 5FE       0.332500
     50 H19         -6.3920     0.3180     1.7280 h1         1 5FE       0.090700
     51 H36         -6.2070    -1.9250     0.6980 hc         1 5FE       0.049700
     52 H371        -7.0850    -1.4630    -1.5860 hc         1 5FE       0.040867
     53 H372        -7.9100    -2.8390    -0.8390 hc         1 5FE       0.040867
     54 H373        -8.7240    -1.2660    -0.9260 hc         1 5FE       0.040867
     55 H381        -8.1560    -2.9830     1.7110 hc         1 5FE       0.040867
     56 H382        -7.6130    -1.6410     2.7350 hc         1 5FE       0.040867
     57 H383        -9.0540    -1.4530     1.7100 hc         1 5FE       0.040867
     58 H17         -4.3910    -0.6060     0.6710 hn         1 5FE       0.327500
     59 H16         -3.6280     0.7290    -1.8930 h1         1 5FE       0.077700
     60 H33         -2.0260     0.9670     0.7110 hc         1 5FE       0.067700
     61 H341        -3.9290     2.5250     0.8420 hc         1 5FE       0.040200
     62 H342        -2.4420     3.4380     0.5730 hc         1 5FE       0.040200
     63 H343        -3.5620     3.1640    -0.7780 hc         1 5FE       0.040200
     64 H351        -1.3830     2.0850    -2.0710 hc         1 5FE       0.040200
     65 H352        -0.5150     2.5080    -0.5820 hc         1 5FE       0.040200
     66 H353        -0.4640     0.8500    -1.1760 hc         1 5FE       0.040200
     67 H14         -2.0490    -0.3160    -3.0530 hn         1 5FE       0.331500
     68 H11          0.7090    -3.2210    -3.1500 h1         1 5FE       0.117700
     69 H1           0.3080    -0.3900    -2.9760 ho         1 5FE       0.440000
     70 H12         -1.6610    -3.1870    -2.3820 h1         1 5FE       0.117700
     71 HN8          2.3240    -0.7050    -0.3010 hn         1 5FE       0.335500
     72 H7           4.5590    -2.4890     0.3000 h1         1 5FE       0.086700
     73 H291         4.8820    -0.5270    -2.0560 hc         1 5FE       0.053367
     74 H292         6.1810    -1.5050    -1.3390 hc         1 5FE       0.053367
     75 H293         4.8500    -2.2980    -2.1970 hc         1 5FE       0.053367
     76 HN5          6.5320    -1.2050     0.9680 hn         1 5FE       0.332500
     77 H3           7.7620     2.3410     2.2910 h1         1 5FE       0.115700
     78 HO3          7.9520     0.5680     0.0320 ho         1 5FE       0.443000
     79 H4           5.6790     1.0550     2.7200 h1         1 5FE       0.117700
     80 HA1          7.6450     5.7110    -1.7990 h1         1 5FE       0.052033
     81 HA2          9.1980     4.9300    -1.4090 h1         1 5FE       0.052033
     82 HA3          8.3750     4.5630    -2.9400 h1         1 5FE       0.052033
     83 F1          -1.2730    -1.5990    -5.2410 f          1 5FE      -0.108000
     84 C10          0.6410    -2.3750    -1.1790 c3         1 5FE      -0.198400
     85 F2          -2.9840    -2.7640    -4.5460 f          1 5FE      -0.108000
     86 F3          -1.0640    -3.7470    -4.8760 f          1 5FE      -0.108000
     87 C9           2.1320    -2.6240    -0.9810 c          1 5FE       0.610100
     88 F4           8.3430    -0.8770     2.8910 f          1 5FE      -0.108000
     89 C2           6.4530     2.5870     0.6060 c3         1 5FE      -0.181400
     90 F5           6.4880    -0.9980     4.0370 f          1 5FE      -0.108000
     91 F6           7.7870     0.7410     4.2580 f          1 5FE      -0.108000
     92 C1           7.2350     3.7920     0.0930 c          1 5FE       0.592100
     93 H101         0.0980    -3.2120    -0.7240 hc         1 5FE       0.074700
     94 H102         0.3420    -1.4390    -0.6940 hc         1 5FE       0.074700
     95 H21          6.0910     1.9950    -0.2420 hc         1 5FE       0.083700
     96 H22          5.6050     2.9540     1.1950 hc         1 5FE       0.083700
@<TRIPOS>BOND
     1     1     2 1   
     2     1     5 1   
     3     1    40 1   
     4     1    41 1   
     5     2     3 1   
     6     2     4 1   
     7     2    42 1   
     8     3    43 1   
     9     3    44 1   
    10     3    45 1   
    11     4    46 1   
    12     4    47 1   
    13     4    48 1   
    14     5     6 2   
    15     5     7 1   
    16     7     8 1   
    17     7    49 1   
    18     8     9 1   
    19     8    11 1   
    20     8    50 1   
    21     9    10 2   
    22     9    14 1   
    23    11    12 1   
    24    11    13 1   
    25    11    51 1   
    26    12    52 1   
    27    12    53 1   
    28    12    54 1   
    29    13    55 1   
    30    13    56 1   
    31    13    57 1   
    32    14    15 1   
    33    14    58 1   
    34    15    16 1   
    35    15    18 1   
    36    15    59 1   
    37    16    17 2   
    38    16    21 1   
    39    18    19 1   
    40    18    20 1   
    41    18    60 1   
    42    19    61 1   
    43    19    62 1   
    44    19    63 1   
    45    20    64 1   
    46    20    65 1   
    47    20    66 1   
    48    21    25 1   
    49    21    67 1   
    50    22    87 2   
    51    23    24 1   
    52    23    25 1   
    53    23    68 1   
    54    23    84 1   
    55    24    69 1   
    56    25    26 1   
    57    25    70 1   
    58    26    83 1   
    59    26    85 1   
    60    26    86 1   
    61    27    28 1   
    62    27    71 1   
    63    27    87 1   
    64    28    29 1   
    65    28    31 1   
    66    28    72 1   
    67    29    30 2   
    68    29    32 1   
    69    31    73 1   
    70    31    74 1   
    71    31    75 1   
    72    32    37 1   
    73    32    76 1   
    74    33    39 1   
    75    33    92 1   
    76    34    92 2   
    77    35    36 1   
    78    35    37 1   
    79    35    77 1   
    80    35    89 1   
    81    36    78 1   
    82    37    38 1   
    83    37    79 1   
    84    38    88 1   
    85    38    90 1   
    86    38    91 1   
    87    39    80 1   
    88    39    81 1   
    89    39    82 1   
    90    84    87 1   
    91    84    93 1   
    92    84    94 1   
    93    89    92 1   
    94    89    95 1   
    95    89    96 1   
@<TRIPOS>SUBSTRUCTURE
     1 5FE         1 TEMP              0 ****  ****    0 ROOT
