@<TRIPOS>MOLECULE
5FE
   96    95     1     0     0
SMALL
bcc


@<TRIPOS>ATOM
      1 C22        -10.2990     1.2360    -0.4950 c3         1 5FE      -0.154400
      2 C23        -10.6440     2.6610    -0.9370 c3         1 5FE      -0.053700
      3 C39         -9.4250     3.3650    -1.5260 c3         1 5FE      -0.090600
      4 C24        -11.7860     2.6330    -1.9460 c3         1 5FE      -0.090600
      5 C21         -9.2640     1.2180     0.6070 c          1 5FE       0.672100
      6 O21         -9.4570     1.7800     1.6770 o          1 5FE      -0.614100
      7 N20         -8.1320     0.5490     0.3190 ns         1 5FE      -0.559900
      8 C19         -7.0000     0.4560     1.2010 c3         1 5FE       0.034700
      9 C18         -5.7320     0.7870     0.4230 c          1 5FE       0.655100
     10 O18         -5.6670     0.7150    -0.7930 o          1 5FE      -0.603100
     11 C36         -6.8710    -0.9350     1.8670 c3         1 5FE      -0.066700
     12 C37         -6.6810    -2.0540     0.8500 c3         1 5FE      -0.089600
     13 C38         -8.0720    -1.2150     2.7620 c3         1 5FE      -0.089600
     14 N17         -4.6800     1.1300     1.1870 ns         1 5FE      -0.557900
     15 C16         -3.3480     1.2460     0.6430 c3         1 5FE       0.043700
     16 C15         -2.8800    -0.1490     0.2240 c          1 5FE       0.654100
     17 O15         -2.9170    -1.0820     1.0040 o          1 5FE      -0.588100
     18 C33         -2.4020     1.8520     1.6900 c3         1 5FE      -0.068700
     19 C34         -2.8800     3.2380     2.1140 c3         1 5FE      -0.091100
     20 C35         -0.9730     1.9330     1.1650 c3         1 5FE      -0.091100
     21 N14         -2.4180    -0.2530    -1.0420 ns         1 5FE      -0.570900
     22 O9           2.1580    -2.5160    -2.0130 o          1 5FE      -0.593100
     23 C11         -0.5800    -1.5210    -2.1240 c3         1 5FE       0.154100
     24 O11         -0.3340    -0.5760    -3.1330 oh         1 5FE      -0.572800
     25 C12         -2.0350    -1.5100    -1.6310 c3         1 5FE       0.001700
     26 C13         -3.0430    -1.8820    -2.7110 c3         1 5FE       0.656900
     27 N8           2.6640    -0.6300    -0.8850 ns         1 5FE      -0.569900
     28 C7           4.0900    -0.7090    -1.0830 c3         1 5FE       0.039700
     29 C6           4.7670     0.0310     0.0620 c          1 5FE       0.664100
     30 O6           4.2330     0.9650     0.6300 o          1 5FE      -0.593100
     31 C29          4.5340    -0.1020    -2.4160 c3         1 5FE      -0.109100
     32 N5           6.0180    -0.3970     0.3360 ns         1 5FE      -0.577900
     33 O1           9.0820     2.9940    -1.8970 os         1 5FE      -0.421900
     34 O2          10.1760     2.6560     0.0180 o          1 5FE      -0.518000
     35 C3           8.1860     0.7170     0.7550 c3         1 5FE       0.153100
     36 O3           8.9420    -0.3020     0.1560 oh         1 5FE      -0.569800
     37 C4           6.8570     0.2070     1.3370 c3         1 5FE       0.002700
     38 C25          7.0370    -0.7690     2.4930 c3         1 5FE       0.656900
     39 CA          10.1990     3.7040    -2.4370 c3         1 5FE       0.128700
     40 H221        -9.9710     0.6530    -1.3610 hc         1 5FE       0.059700
     41 H222       -11.1980     0.7460    -0.1090 hc         1 5FE       0.059700
     42 H23        -10.9780     3.2160    -0.0550 hc         1 5FE       0.066700
     43 H391        -9.6730     4.3810    -1.8390 hc         1 5FE       0.035033
     44 H392        -8.6000     3.4380    -0.8150 hc         1 5FE       0.035033
     45 H393        -9.0590     2.8280    -2.4040 hc         1 5FE       0.035033
     46 H241       -12.6700     2.1390    -1.5400 hc         1 5FE       0.035033
     47 H242       -12.0740     3.6430    -2.2400 hc         1 5FE       0.035033
     48 H243       -11.4910     2.0960    -2.8520 hc         1 5FE       0.035033
     49 H20         -8.0180     0.1840    -0.6130 hn         1 5FE       0.332500
     50 H19         -7.1300     1.1990     1.9920 h1         1 5FE       0.090700
     51 H36         -5.9800    -0.8960     2.5020 hc         1 5FE       0.049700
     52 H371        -5.7780    -1.9320     0.2520 hc         1 5FE       0.040867
     53 H372        -6.6030    -3.0140     1.3620 hc         1 5FE       0.040867
     54 H373        -7.5310    -2.1200     0.1680 hc         1 5FE       0.040867
     55 H381        -7.9380    -2.1610     3.2870 hc         1 5FE       0.040867
     56 H382        -8.2110    -0.4340     3.5110 hc         1 5FE       0.040867
     57 H383        -8.9920    -1.2920     2.1810 hc         1 5FE       0.040867
     58 H17         -4.7760     1.0890     2.1900 hn         1 5FE       0.327500
     59 H16         -3.3760     1.9140    -0.2240 h1         1 5FE       0.077700
     60 H33         -2.4100     1.1920     2.5650 hc         1 5FE       0.067700
     61 H341        -3.8870     3.2290     2.5320 hc         1 5FE       0.040200
     62 H342        -2.2150     3.6460     2.8750 hc         1 5FE       0.040200
     63 H343        -2.8750     3.9250     1.2660 hc         1 5FE       0.040200
     64 H351        -0.9180     2.5490     0.2650 hc         1 5FE       0.040200
     65 H352        -0.3260     2.3880     1.9150 hc         1 5FE       0.040200
     66 H353        -0.5530     0.9540     0.9350 hc         1 5FE       0.040200
     67 H14         -2.5100     0.5510    -1.6440 hn         1 5FE       0.331500
     68 H11         -0.3840    -2.5000    -2.5670 h1         1 5FE       0.117700
     69 H1          -0.2630     0.3040    -2.7460 ho         1 5FE       0.401000
     70 H12         -2.1220    -2.2760    -0.8560 h1         1 5FE       0.117700
     71 HN8          2.3150     0.1700    -0.3800 hn         1 5FE       0.335500
     72 H7           4.3830    -1.7610    -1.0590 h1         1 5FE       0.086700
     73 H291         4.2810     0.9570    -2.4660 hc         1 5FE       0.053367
     74 H292         5.6110    -0.2060    -2.5540 hc         1 5FE       0.053367
     75 H293         4.0410    -0.6160    -3.2390 hc         1 5FE       0.053367
     76 HN5          6.3450    -1.2330    -0.1270 hn         1 5FE       0.332500
     77 H3           8.7860     1.1000     1.5830 h1         1 5FE       0.115700
     78 HO3          8.5960    -0.4960    -0.7220 ho         1 5FE       0.404000
     79 H4           6.3230     1.0690     1.7450 h1         1 5FE       0.117700
     80 HA1         10.4290     4.5910    -1.8490 h1         1 5FE       0.052033
     81 HA2         11.0830     3.0690    -2.4930 h1         1 5FE       0.052033
     82 HA3          9.9050     4.0020    -3.4390 h1         1 5FE       0.052033
     83 F1          -3.1700    -0.9420    -3.6530 f          1 5FE      -0.229300
     84 C10          0.3630    -1.3490    -0.9420 c3         1 5FE      -0.198400
     85 F2          -4.2610    -2.0660    -2.1870 f          1 5FE      -0.229300
     86 F3          -2.7040    -3.0200    -3.3280 f          1 5FE      -0.229300
     87 C9           1.8080    -1.5530    -1.3470 c          1 5FE       0.677100
     88 F4           7.5790    -1.9310     2.1160 f          1 5FE      -0.229300
     89 C2           7.9150     1.8660    -0.2060 c3         1 5FE      -0.181400
     90 F5           5.8580    -1.0600     3.0580 f          1 5FE      -0.229300
     91 F6           7.8190    -0.2570     3.4490 f          1 5FE      -0.229300
     92 C1           9.1900     2.5300    -0.6630 c          1 5FE       0.641100
     93 H101         0.1360    -2.0960    -0.1770 hc         1 5FE       0.074700
     94 H102         0.2110    -0.3740    -0.4740 hc         1 5FE       0.074700
     95 H21          7.3320     1.5340    -1.0690 hc         1 5FE       0.083700
     96 H22          7.3120     2.6320     0.2920 hc         1 5FE       0.083700
@<TRIPOS>BOND
     1     1     2 1   
     2     1     5 1   
     3     1    40 1   
     4     1    41 1   
     5     2     3 1   
     6     2     4 1   
     7     2    42 1   
     8     3    43 1   
     9     3    44 1   
    10     3    45 1   
    11     4    46 1   
    12     4    47 1   
    13     4    48 1   
    14     5     6 2   
    15     5     7 1   
    16     7     8 1   
    17     7    49 1   
    18     8     9 1   
    19     8    11 1   
    20     8    50 1   
    21     9    10 2   
    22     9    14 1   
    23    11    12 1   
    24    11    13 1   
    25    11    51 1   
    26    12    52 1   
    27    12    53 1   
    28    12    54 1   
    29    13    55 1   
    30    13    56 1   
    31    13    57 1   
    32    14    15 1   
    33    14    58 1   
    34    15    16 1   
    35    15    18 1   
    36    15    59 1   
    37    16    17 2   
    38    16    21 1   
    39    18    19 1   
    40    18    20 1   
    41    18    60 1   
    42    19    61 1   
    43    19    62 1   
    44    19    63 1   
    45    20    64 1   
    46    20    65 1   
    47    20    66 1   
    48    21    25 1   
    49    21    67 1   
    50    22    87 2   
    51    23    24 1   
    52    23    25 1   
    53    23    68 1   
    54    23    84 1   
    55    24    69 1   
    56    25    26 1   
    57    25    70 1   
    58    26    83 1   
    59    26    85 1   
    60    26    86 1   
    61    27    28 1   
    62    27    71 1   
    63    27    87 1   
    64    28    29 1   
    65    28    31 1   
    66    28    72 1   
    67    29    30 2   
    68    29    32 1   
    69    31    73 1   
    70    31    74 1   
    71    31    75 1   
    72    32    37 1   
    73    32    76 1   
    74    33    39 1   
    75    33    92 1   
    76    34    92 2   
    77    35    36 1   
    78    35    37 1   
    79    35    77 1   
    80    35    89 1   
    81    36    78 1   
    82    37    38 1   
    83    37    79 1   
    84    38    88 1   
    85    38    90 1   
    86    38    91 1   
    87    39    80 1   
    88    39    81 1   
    89    39    82 1   
    90    84    87 1   
    91    84    93 1   
    92    84    94 1   
    93    89    92 1   
    94    89    95 1   
    95    89    96 1   
@<TRIPOS>SUBSTRUCTURE
     1 5FE         1 TEMP              0 ****  ****    0 ROOT
