@<TRIPOS>MOLECULE
5FF
   58    61     1     0     0
SMALL
No Charge or Current Charge


@<TRIPOS>ATOM
      1 C1          -3.0930    -0.2100     0.8580 c6         1 5FF       0.271800
      2 C2          -3.3130    -1.5580     0.1130 c6         1 5FF      -0.105400
      3 C3          -2.2140    -2.6260     0.4540 c6         1 5FF       0.040300
      4 C5          -0.6910    -0.6130     0.4190 cc         1 5FF       0.333000
      5 C13         -2.3950    -3.9370    -0.3790 c3         1 5FF       0.305000
      6 F56         -1.5920    -4.9340     0.0600 f          1 5FF      -0.104667
      7 F57         -3.6630    -4.4020    -0.3020 f          1 5FF      -0.104667
      8 C7          -4.1150     0.8590     0.4580 ca         1 5FF      -0.115300
      9 C8          -5.0250     1.3550     1.4130 ca         1 5FF      -0.087000
     10 C9          -5.9700     2.3320     1.0540 ca         1 5FF      -0.110000
     11 C10         -6.0190     2.8270    -0.2620 ca         1 5FF      -0.061300
     12 C32         -7.0400     3.8890    -0.6480 c3         1 5FF      -0.035100
     13 C33         -6.5010     5.3160    -0.4400 c3         1 5FF      -0.087100
     14 C11         -5.1080     2.3370    -1.2160 ca         1 5FF      -0.110000
     15 C12         -4.1630     1.3590    -0.8600 ca         1 5FF      -0.087000
     16 N6          -1.7310     0.2600     0.5880 nu         1 5FF      -0.923200
     17 N4          -0.8700    -1.9910     0.3380 na         1 5FF       0.064800
     18 N19          0.3240    -2.6760     0.1910 nc         1 5FF      -0.516800
     19 C18          1.2140    -1.6980     0.1650 cd         1 5FF       0.311900
     20 C17          0.6420    -0.4160     0.3050 cd         1 5FF      -0.361600
     21 C20          1.3010     0.8930     0.3360 c          1 5FF       0.666700
     22 O22          0.7120     1.9560     0.4760 o          1 5FF      -0.653100
     23 N21          2.6620     0.8210     0.1960 ns         1 5FF      -0.499900
     24 C23          3.5490     1.9780     0.1950 c3         1 5FF       0.154300
     25 C24          4.9960     1.5480     0.0210 ca         1 5FF      -0.152300
     26 C25          5.5520     1.4360    -1.2670 ca         1 5FF      -0.059000
     27 C26          6.8890     1.0330    -1.4250 ca         1 5FF      -0.175500
     28 C27          7.6810     0.7370    -0.3050 ca         1 5FF       0.146100
     29 O30          8.9870     0.3460    -0.5240 os         1 5FF      -0.340100
     30 C31          9.8810     0.0200     0.5560 c3         1 5FF       0.147900
     31 C28          7.1250     0.8460     0.9880 ca         1 5FF      -0.175500
     32 C29          5.7870     1.2490     1.1470 ca         1 5FF      -0.059000
     33 H1          -3.1930    -0.4020     1.9380 h1         1 5FF       0.045700
     34 H2          -4.3100    -1.9440     0.3650 hc         1 5FF       0.083700
     35 H3          -3.3190    -1.3760    -0.9700 hc         1 5FF       0.083700
     36 H4          -2.3350    -2.9040     1.5100 h1         1 5FF       0.093700
     37 H5          -5.0030     0.9840     2.4350 ha         1 5FF       0.120000
     38 H6          -6.6650     2.7060     1.8030 ha         1 5FF       0.116000
     39 H7          -7.3340     3.7690    -1.6980 hc         1 5FF       0.047700
     40 H8          -7.9570     3.7650    -0.0590 hc         1 5FF       0.047700
     41 H9          -7.2560     6.0570    -0.7250 hc         1 5FF       0.037033
     42 H10         -6.2380     5.4800     0.6120 hc         1 5FF       0.037033
     43 H11         -5.6050     5.4840    -1.0500 hc         1 5FF       0.037033
     44 H12         -5.1300     2.7140    -2.2360 ha         1 5FF       0.116000
     45 H13         -3.4630     0.9940    -1.6080 ha         1 5FF       0.120000
     46 H14         -1.4790     1.2450     0.7060 hn         1 5FF       0.528000
     47 H15          2.2610    -1.9520     0.0520 h4         1 5FF       0.038100
     48 H16          3.0710    -0.0960     0.0850 hn         1 5FF       0.313500
     49 H17          3.2570     2.6530    -0.6210 h1         1 5FF       0.060200
     50 H18          3.4310     2.5210     1.1430 h1         1 5FF       0.060200
     51 H19          4.9490     1.6600    -2.1450 ha         1 5FF       0.116500
     52 H20          7.3140     0.9490    -2.4220 ha         1 5FF       0.123000
     53 H21         10.8650    -0.2640     0.1620 h1         1 5FF       0.040700
     54 H22         10.0170     0.8810     1.2230 h1         1 5FF       0.040700
     55 H23          9.4940    -0.8230     1.1420 h1         1 5FF       0.040700
     56 H24          7.7090     0.6230     1.8750 ha         1 5FF       0.123000
     57 H25          5.3650     1.3280     2.1470 ha         1 5FF       0.116500
     58 F58         -2.1220    -3.7440    -1.6910 f          1 5FF      -0.104667
@<TRIPOS>BOND
     1     1     2 1   
     2     1     8 1   
     3     1    16 1   
     4     1    33 1   
     5     2     3 1   
     6     2    34 1   
     7     2    35 1   
     8     3     5 1   
     9     3    17 1   
    10     3    36 1   
    11     4    16 1   
    12     4    17 1   
    13     4    20 2   
    14     5     6 1   
    15     5     7 1   
    16     5    58 1   
    17     8     9 ar  
    18     8    15 ar  
    19     9    10 ar  
    20     9    37 1   
    21    10    11 ar  
    22    10    38 1   
    23    11    12 1   
    24    11    14 ar  
    25    12    13 1   
    26    12    39 1   
    27    12    40 1   
    28    13    41 1   
    29    13    42 1   
    30    13    43 1   
    31    14    15 ar  
    32    14    44 1   
    33    15    45 1   
    34    16    46 1   
    35    17    18 1   
    36    18    19 2   
    37    19    20 1   
    38    19    47 1   
    39    20    21 1   
    40    21    22 2   
    41    21    23 1   
    42    23    24 1   
    43    23    48 1   
    44    24    25 1   
    45    24    49 1   
    46    24    50 1   
    47    25    26 ar  
    48    25    32 ar  
    49    26    27 ar  
    50    26    51 1   
    51    27    28 ar  
    52    27    52 1   
    53    28    29 1   
    54    28    31 ar  
    55    29    30 1   
    56    30    53 1   
    57    30    54 1   
    58    30    55 1   
    59    31    32 ar  
    60    31    56 1   
    61    32    57 1   
@<TRIPOS>SUBSTRUCTURE
     1 5FF         1 TEMP              0 ****  ****    0 ROOT
