@<TRIPOS>MOLECULE
5FF
   58    61     1     0     0
SMALL
abcg2


@<TRIPOS>ATOM
      1 C1          -3.0450    -0.1510     0.7340 c6         1 5FF       0.271800
      2 C2          -3.3240    -1.4690     0.0140 c6         1 5FF      -0.105400
      3 C3          -2.3920    -2.5830     0.5010 c6         1 5FF       0.040300
      4 C5          -0.7310    -0.7460     0.6550 cc         1 5FF       0.333000
      5 C13         -2.3970    -3.7550    -0.4780 c3         1 5FF       0.305000
      6 F56         -1.8200    -4.8500     0.0200 f          1 5FF      -0.104667
      7 F57         -3.6550    -4.0930    -0.7870 f          1 5FF      -0.104667
      8 C7          -3.9800     0.9280     0.2560 ca         1 5FF      -0.115300
      9 C8          -5.0560     1.3160     1.0450 ca         1 5FF      -0.087000
     10 C9          -5.9540     2.2750     0.5970 ca         1 5FF      -0.110000
     11 C10         -5.7990     2.8730    -0.6500 ca         1 5FF      -0.061300
     12 C32         -6.7430     3.9470    -1.1160 c3         1 5FF      -0.035100
     13 C33         -6.2760     5.3400    -0.6960 c3         1 5FF      -0.087100
     14 C11         -4.7150     2.4830    -1.4350 ca         1 5FF      -0.110000
     15 C12         -3.8180     1.5240    -0.9910 ca         1 5FF      -0.087000
     16 N6          -1.6640     0.2150     0.4760 nu         1 5FF      -0.923200
     17 N4          -1.0550    -2.0530     0.6420 na         1 5FF       0.064800
     18 N19          0.0150    -2.8550     0.8580 nc         1 5FF      -0.516800
     19 C18          1.0260    -2.0400     0.9890 cd         1 5FF       0.311900
     20 C17          0.6450    -0.6830     0.8760 cd         1 5FF      -0.361600
     21 C20          1.4040     0.5550     0.9950 c          1 5FF       0.666700
     22 O22          0.8580     1.6500     0.8480 o          1 5FF      -0.653100
     23 N21          2.7150     0.4260     1.2750 ns         1 5FF      -0.499900
     24 C23          3.6240     1.5370     1.4520 c3         1 5FF       0.154300
     25 C24          4.9170     1.3140     0.7150 ca         1 5FF      -0.152300
     26 C25          4.9370     1.1820    -0.6750 ca         1 5FF      -0.059000
     27 C26          6.1190     0.9790    -1.3570 ca         1 5FF      -0.175500
     28 C27          7.3300     0.8990    -0.6610 ca         1 5FF       0.146100
     29 O30          8.4330     0.6960    -1.4070 os         1 5FF      -0.340100
     30 C31          9.6780     0.5760    -0.7490 c3         1 5FF       0.147900
     31 C28          7.3270     1.0280     0.7230 ca         1 5FF      -0.175500
     32 C29          6.1230     1.2310     1.3920 ca         1 5FF      -0.059000
     33 H1          -3.2090    -0.3010     1.8100 h1         1 5FF       0.045700
     34 H2          -4.3540    -1.7650     0.2010 hc         1 5FF       0.083700
     35 H3          -3.2100    -1.3080    -1.0610 hc         1 5FF       0.083700
     36 H4          -2.7380    -2.9600     1.4680 h1         1 5FF       0.093700
     37 H5          -5.1960     0.8680     2.0220 ha         1 5FF       0.120000
     38 H6          -6.7840     2.5640     1.2310 ha         1 5FF       0.116000
     39 H7          -6.8350     3.9090    -2.2040 hc         1 5FF       0.047700
     40 H8          -7.7410     3.7600    -0.7120 hc         1 5FF       0.047700
     41 H9          -6.9740     6.1040    -1.0390 hc         1 5FF       0.037033
     42 H10         -6.2000     5.4190     0.3890 hc         1 5FF       0.037033
     43 H11         -5.2960     5.5680    -1.1170 hc         1 5FF       0.037033
     44 H12         -4.5720     2.9320    -2.4110 ha         1 5FF       0.116000
     45 H13         -2.9860     1.2380    -1.6240 ha         1 5FF       0.120000
     46 H14         -1.3660     1.1400     0.7500 hn         1 5FF       0.528000
     47 H15          2.0130    -2.4450     1.1620 h4         1 5FF       0.038100
     48 H16          3.0900    -0.4930     1.4480 hn         1 5FF       0.313500
     49 H17          3.1270     2.4360     1.0890 h1         1 5FF       0.060200
     50 H18          3.8290     1.6950     2.5140 h1         1 5FF       0.060200
     51 H19          4.0110     1.2390    -1.2360 ha         1 5FF       0.116500
     52 H20          6.1170     0.8820    -2.4360 ha         1 5FF       0.123000
     53 H21         10.4220     0.4060    -1.5240 h1         1 5FF       0.040700
     54 H22          9.9420     1.4860    -0.2030 h1         1 5FF       0.040700
     55 H23          9.6940    -0.2690    -0.0560 h1         1 5FF       0.040700
     56 H24          8.2410     0.9720     1.3000 ha         1 5FF       0.123000
     57 H25          6.1390     1.3250     2.4720 ha         1 5FF       0.116500
     58 F58         -1.7710    -3.4550    -1.6190 f          1 5FF      -0.104667
@<TRIPOS>BOND
     1     1     2 1   
     2     1     8 1   
     3     1    16 1   
     4     1    33 1   
     5     2     3 1   
     6     2    34 1   
     7     2    35 1   
     8     3     5 1   
     9     3    17 1   
    10     3    36 1   
    11     4    16 1   
    12     4    17 1   
    13     4    20 2   
    14     5     6 1   
    15     5     7 1   
    16     5    58 1   
    17     8     9 ar  
    18     8    15 ar  
    19     9    10 ar  
    20     9    37 1   
    21    10    11 ar  
    22    10    38 1   
    23    11    12 1   
    24    11    14 ar  
    25    12    13 1   
    26    12    39 1   
    27    12    40 1   
    28    13    41 1   
    29    13    42 1   
    30    13    43 1   
    31    14    15 ar  
    32    14    44 1   
    33    15    45 1   
    34    16    46 1   
    35    17    18 1   
    36    18    19 2   
    37    19    20 1   
    38    19    47 1   
    39    20    21 1   
    40    21    22 2   
    41    21    23 1   
    42    23    24 1   
    43    23    48 1   
    44    24    25 1   
    45    24    49 1   
    46    24    50 1   
    47    25    26 ar  
    48    25    32 ar  
    49    26    27 ar  
    50    26    51 1   
    51    27    28 ar  
    52    27    52 1   
    53    28    29 1   
    54    28    31 ar  
    55    29    30 1   
    56    30    53 1   
    57    30    54 1   
    58    30    55 1   
    59    31    32 ar  
    60    31    56 1   
    61    32    57 1   
@<TRIPOS>SUBSTRUCTURE
     1 5FF         1 TEMP              0 ****  ****    0 ROOT
