@<TRIPOS>MOLECULE
5FH
   24    25     1     0     0
SMALL
No Charge or Current Charge


@<TRIPOS>ATOM
      1 N1           3.3400    12.5460   -27.1820 ns         1 5FH      -0.522900
      2 C1           3.1050    11.3940   -27.8670 c          1 5FH       0.622000
      3 O1           2.1610    11.1580   -28.5950 o          1 5FH      -0.546000
      4 N2           4.1290    10.5820   -27.5880 ns         1 5FH      -0.479500
      5 C2           5.0860    11.0290   -26.7470 c          1 5FH       0.568000
      6 O2           6.0820    10.4100   -26.4060 o          1 5FH      -0.509000
      7 C3           4.5790    12.4560   -26.3660 c5         1 5FH       0.021700
      8 C4           4.3350    12.5930   -24.8410 c3         1 5FH      -0.033100
      9 C5           3.2440    11.6750   -24.2940 ca         1 5FH      -0.099300
     10 C6           2.5650     9.5390   -23.3260 ca         1 5FH      -0.108000
     11 C7           1.9030    12.1030   -24.2610 ca         1 5FH      -0.099500
     12 C8           0.8980    11.2540   -23.7660 ca         1 5FH      -0.108000
     13 C9           1.2290     9.9710   -23.2990 ca         1 5FH      -0.103000
     14 C10          3.5700    10.3880   -23.8210 ca         1 5FH      -0.099500
     15 H1           2.6810    13.3150   -27.2360 hn         1 5FH       0.349500
     16 H3           5.3380    13.1800   -26.6890 h1         1 5FH       0.086700
     17 H2           4.1830     9.6620   -27.9960 hn         1 5FH       0.356500
     18 H41C         5.2760    12.4120   -24.3060 hc         1 5FH       0.064700
     19 H42C         4.0750    13.6350   -24.6190 hc         1 5FH       0.064700
     20 H7           1.6360    13.0940   -24.6230 ha         1 5FH       0.114000
     21 H10          4.6020    10.0440   -23.8370 ha         1 5FH       0.114000
     22 H6           2.8230     8.5460   -22.9630 ha         1 5FH       0.115500
     23 H9           0.4510     9.3130   -22.9160 ha         1 5FH       0.115000
     24 H8          -0.1360    11.5900   -23.7450 ha         1 5FH       0.115500
@<TRIPOS>BOND
     1     1     2 1   
     2     1     7 1   
     3     1    15 1   
     4     2     3 2   
     5     2     4 1   
     6     4     5 1   
     7     4    17 1   
     8     5     6 2   
     9     5     7 1   
    10     7     8 1   
    11     7    16 1   
    12     8     9 1   
    13     8    18 1   
    14     8    19 1   
    15     9    11 ar  
    16     9    14 ar  
    17    10    13 ar  
    18    10    14 ar  
    19    10    22 1   
    20    11    12 ar  
    21    11    20 1   
    22    12    13 ar  
    23    12    24 1   
    24    13    23 1   
    25    14    21 1   
@<TRIPOS>SUBSTRUCTURE
     1 5FH         1 TEMP              0 ****  ****    0 ROOT
