@<TRIPOS>MOLECULE
5FH
   24    25     1     0     0
SMALL
bcc


@<TRIPOS>ATOM
      1 N1           3.3950    12.6090   -27.1560 ns         1 5FH      -0.589900
      2 C1           3.0240    11.5010   -27.8250 c          1 5FH       0.831500
      3 O1           2.0650    11.3370   -28.5470 o          1 5FH      -0.621500
      4 N2           3.9900    10.5360   -27.5380 ns         1 5FH      -0.613500
      5 C2           4.9570    10.9920   -26.7000 c          1 5FH       0.710500
      6 O2           5.9200    10.3850   -26.2960 o          1 5FH      -0.584500
      7 C3           4.5730    12.4220   -26.3510 c5         1 5FH       0.021700
      8 C4           4.3370    12.5920   -24.8430 c3         1 5FH      -0.033100
      9 C5           3.2760    11.6740   -24.3040 ca         1 5FH      -0.099300
     10 C6           2.6310     9.5750   -23.2890 ca         1 5FH      -0.126000
     11 C7           1.9300    12.0280   -24.3670 ca         1 5FH      -0.117500
     12 C8           0.9450    11.1680   -23.9020 ca         1 5FH      -0.126000
     13 C9           1.2930     9.9360   -23.3640 ca         1 5FH      -0.121000
     14 C10          3.6140    10.4380   -23.7560 ca         1 5FH      -0.117500
     15 H1           2.8590    13.4610   -27.1830 hn         1 5FH       0.349500
     16 H3           5.3790    13.0940   -26.6610 h1         1 5FH       0.086700
     17 H2           3.9590     9.6020   -27.9230 hn         1 5FH       0.356500
     18 H41C         5.2900    12.4210   -24.3390 hc         1 5FH       0.064700
     19 H42C         4.0700    13.6360   -24.6640 hc         1 5FH       0.064700
     20 H7           1.6480    12.9910   -24.7760 ha         1 5FH       0.132000
     21 H10          4.6550    10.1480   -23.6860 ha         1 5FH       0.132000
     22 H6           2.9150     8.6200   -22.8630 ha         1 5FH       0.133500
     23 H9           0.5260     9.2640   -22.9990 ha         1 5FH       0.133000
     24 H8          -0.0950    11.4620   -23.9570 ha         1 5FH       0.133500
@<TRIPOS>BOND
     1     1     2 1   
     2     1     7 1   
     3     1    15 1   
     4     2     3 2   
     5     2     4 1   
     6     4     5 1   
     7     4    17 1   
     8     5     6 2   
     9     5     7 1   
    10     7     8 1   
    11     7    16 1   
    12     8     9 1   
    13     8    18 1   
    14     8    19 1   
    15     9    11 ar  
    16     9    14 ar  
    17    10    13 ar  
    18    10    14 ar  
    19    10    22 1   
    20    11    12 ar  
    21    11    20 1   
    22    12    13 ar  
    23    12    24 1   
    24    13    23 1   
    25    14    21 1   
@<TRIPOS>SUBSTRUCTURE
     1 5FH         1 TEMP              0 ****  ****    0 ROOT
