@<TRIPOS>MOLECULE
5FI
   49    52     1     0     0
SMALL
No Charge or Current Charge


@<TRIPOS>ATOM
      1 C4           4.9160    -0.6730     0.4440 ca         1 5FI       0.363900
      2 C5           6.0650    -0.5610    -0.3780 ca         1 5FI      -0.206300
      3 C6           7.2250    -1.2290     0.0610 ca         1 5FI       0.112900
      4 N1           7.2530    -1.9400     1.2040 nb         1 5FI      -0.190000
      5 N3           4.9410    -1.3920     1.5850 nb         1 5FI      -0.250000
      6 FAB         -7.2340    -1.6820    -0.4130 f          1 5FI      -0.116000
      7 FAC         -7.6200     0.2790    -1.2680 f          1 5FI      -0.116000
      8 FAD         -8.0150    -0.0810     0.8340 f          1 5FI      -0.116000
      9 CAU         -5.7150     0.0560     0.1700 ca         1 5FI      -0.223300
     10 CAE         -5.2540     0.0190     1.5140 ca         1 5FI      -0.053000
     11 CAF         -3.9300     0.3880     1.8290 ca         1 5FI      -0.118000
     12 CAI         -4.8230     0.4560    -0.8580 ca         1 5FI       0.009000
     13 CAX         -3.5090     0.8180    -0.5200 ca         1 5FI       0.056400
     14 CAY         -3.0930     0.7830     0.7800 ca         1 5FI      -0.057200
     15 NAS         -1.7870     1.1780     0.8300 na         1 5FI      -0.296600
     16 NAR         -2.4950     1.2340    -1.3680 nc         1 5FI      -0.570100
     17 CAV         -1.4720     1.4370    -0.5100 cd         1 5FI       0.414800
     18 NAZ          1.0640     1.3300    -0.2140 n3         1 5FI      -0.743600
     19 CAL          2.3590     2.0010    -0.5520 c6         1 5FI       0.155800
     20 CAN          3.5650     1.4310     0.2610 c6         1 5FI       0.207800
     21 CAK          1.2030    -0.1510    -0.3980 c6         1 5FI       0.155800
     22 CAM          2.3950    -0.7540     0.4140 c6         1 5FI       0.207800
     23 NBA          3.6880    -0.0540     0.1260 nh         1 5FI      -0.771300
     24 CAJ          6.0890     0.1940    -1.7100 c3         1 5FI      -0.020100
     25 CAA          6.9970     1.4390    -1.6680 c3         1 5FI      -0.090100
     26 C2           6.1060    -1.9860     1.9090 ca         1 5FI       0.144900
     27 H1           8.1480    -1.2020    -0.5170 h4         1 5FI       0.021100
     28 H2          -5.9180    -0.2980     2.3160 ha         1 5FI       0.130000
     29 H3          -3.5730     0.3630     2.8560 ha         1 5FI       0.125000
     30 H4          -5.1360     0.4830    -1.9000 ha         1 5FI       0.145000
     31 H7           0.0030     1.6940    -2.0350 h1         1 5FI       0.066700
     32 H8          -0.0920     3.0020    -0.8600 h1         1 5FI       0.066700
     33 H10          2.5770     1.8810    -1.6240 h1         1 5FI       0.047950
     34 H11          2.2900     3.0810    -0.3590 h1         1 5FI       0.047950
     35 H12          4.4820     1.9300    -0.0800 h1         1 5FI       0.056450
     36 H13          3.4300     1.6950     1.3200 h1         1 5FI       0.056450
     37 H14          0.2820    -0.6680    -0.0910 h1         1 5FI       0.047950
     38 H15          1.3580    -0.3850    -1.4620 h1         1 5FI       0.047950
     39 H16          2.1600    -0.6820     1.4860 h1         1 5FI       0.056450
     40 H17          2.4770    -1.8230     0.1670 h1         1 5FI       0.056450
     41 H18          6.4540    -0.4750    -2.5000 hc         1 5FI       0.052200
     42 H19          5.0840     0.4970    -2.0240 hc         1 5FI       0.052200
     43 H20          6.9690     1.9640    -2.6300 hc         1 5FI       0.036033
     44 H21          6.6680     2.1350    -0.8880 hc         1 5FI       0.036033
     45 H22          8.0360     1.1570    -1.4630 hc         1 5FI       0.036033
     46 H23          6.1220    -2.5620     2.8320 h5         1 5FI       0.048100
     47 H5          -1.1610     1.2470     1.6210 hn         1 5FI       0.375000
     48 CAO         -0.0970     1.9090    -0.9620 c3         1 5FI       0.146500
     49 CBB         -7.1500    -0.3560    -0.1700 c3         1 5FI       0.359300
@<TRIPOS>BOND
     1     1     2 ar  
     2     1     5 ar  
     3     1    23 1   
     4     2     3 ar  
     5     2    24 1   
     6     3     4 ar  
     7     3    27 1   
     8     4    26 ar  
     9     5    26 ar  
    10     6    49 1   
    11     7    49 1   
    12     8    49 1   
    13     9    10 ar  
    14     9    12 ar  
    15     9    49 1   
    16    10    11 ar  
    17    10    28 1   
    18    11    14 ar  
    19    11    29 1   
    20    12    13 ar  
    21    12    30 1   
    22    13    14 ar  
    23    13    16 1   
    24    14    15 1   
    25    15    17 1   
    26    15    47 1   
    27    16    17 2   
    28    17    48 1   
    29    18    19 1   
    30    18    21 1   
    31    18    48 1   
    32    19    20 1   
    33    19    33 1   
    34    19    34 1   
    35    20    23 1   
    36    20    35 1   
    37    20    36 1   
    38    21    22 1   
    39    21    37 1   
    40    21    38 1   
    41    22    23 1   
    42    22    39 1   
    43    22    40 1   
    44    24    25 1   
    45    24    41 1   
    46    24    42 1   
    47    25    43 1   
    48    25    44 1   
    49    25    45 1   
    50    26    46 1   
    51    31    48 1   
    52    32    48 1   
@<TRIPOS>SUBSTRUCTURE
     1 5FI         1 TEMP              0 ****  ****    0 ROOT
