@<TRIPOS>MOLECULE
5FI
   49    52     1     0     0
SMALL
bcc


@<TRIPOS>ATOM
      1 C4           4.7020    -0.7680     0.3120 ca         1 5FI       0.692200
      2 C5           5.9510    -0.3830    -0.2270 ca         1 5FI      -0.336900
      3 C6           7.0390    -1.0750     0.2670 ca         1 5FI       0.441200
      4 N1           6.9700    -2.0640     1.1590 nb         1 5FI      -0.716000
      5 N3           4.6270    -1.7890     1.1670 nb         1 5FI      -0.776000
      6 FAB         -7.0750    -1.5140     0.1790 f          1 5FI      -0.237300
      7 FAC         -7.5390     0.3820    -0.7180 f          1 5FI      -0.237300
      8 FAD         -7.6520     0.1450     1.4170 f          1 5FI      -0.237300
      9 CAU         -5.5010     0.2150     0.4510 ca         1 5FI      -0.223300
     10 CAE         -4.9200     0.3600     1.7210 ca         1 5FI      -0.071000
     11 CAF         -3.5840     0.6830     1.8670 ca         1 5FI      -0.136000
     12 CAI         -4.7580     0.3810    -0.7080 ca         1 5FI      -0.009000
     13 CAX         -3.4130     0.7040    -0.5760 ca         1 5FI       0.056400
     14 CAY         -2.8470     0.8520     0.7030 ca         1 5FI      -0.057200
     15 NAS         -1.5400     1.1640     0.4640 na         1 5FI      -0.246300
     16 NAR         -2.4580     0.9140    -1.5420 nc         1 5FI      -0.570100
     17 CAV         -1.3660     1.1840    -0.8830 cd         1 5FI       0.414800
     18 NAZ          1.0370     1.0640    -0.6440 n3         1 5FI      -0.743600
     19 CAL          2.2890     1.7410    -0.9250 c6         1 5FI       0.155800
     20 CAN          3.3600     1.2660     0.0340 c6         1 5FI       0.207800
     21 CAK          1.2020    -0.3770    -0.7290 c6         1 5FI       0.155800
     22 CAM          2.2730    -0.8640     0.2280 c6         1 5FI       0.207800
     23 NBA          3.5200    -0.1780    -0.0620 nh         1 5FI      -0.771300
     24 CAJ          6.1630     0.6130    -1.3360 c3         1 5FI      -0.020100
     25 CAA          6.8210     1.9150    -0.8810 c3         1 5FI      -0.090100
     26 C2           5.7470    -2.3830     1.5380 ca         1 5FI       0.670900
     27 H1           8.0320    -0.8340    -0.1040 h4         1 5FI       0.021100
     28 H2          -5.5170     0.2240     2.6130 ha         1 5FI       0.148000
     29 H3          -3.1440     0.8010     2.8480 ha         1 5FI       0.143000
     30 H4          -5.1930     0.2660    -1.6930 ha         1 5FI       0.163000
     31 H7          -0.0070     1.1640    -2.5100 h1         1 5FI       0.066700
     32 H8           0.0170     2.6300    -1.5390 h1         1 5FI       0.066700
     33 H10          2.6280     1.5730    -1.9610 h1         1 5FI       0.047950
     34 H11          2.1510     2.8160    -0.7940 h1         1 5FI       0.047950
     35 H12          4.2900     1.7790    -0.1860 h1         1 5FI       0.056450
     36 H13          3.0770     1.5400     1.0590 h1         1 5FI       0.056450
     37 H14          0.2610    -0.8680    -0.4690 h1         1 5FI       0.047950
     38 H15          1.4590    -0.6920    -1.7540 h1         1 5FI       0.047950
     39 H16          1.9520    -0.6960     1.2640 h1         1 5FI       0.056450
     40 H17          2.4050    -1.9360     0.0950 h1         1 5FI       0.056450
     41 H18          6.8060     0.1470    -2.0860 hc         1 5FI       0.052200
     42 H19          5.2210     0.8160    -1.8470 hc         1 5FI       0.052200
     43 H20          6.9360     2.6000    -1.7210 hc         1 5FI       0.036033
     44 H21          6.2410     2.4250    -0.1110 hc         1 5FI       0.036033
     45 H22          7.8130     1.7270    -0.4690 hc         1 5FI       0.036033
     46 H23          5.6460    -3.2120     2.2310 h5         1 5FI       0.048100
     47 H5          -0.8060     1.3170     1.1390 hn         1 5FI       0.324700
     48 CAO         -0.0440     1.5390    -1.4770 c3         1 5FI       0.146500
     49 CBB         -6.9360    -0.1850     0.3350 c3         1 5FI       0.723200
@<TRIPOS>BOND
     1     1     2 ar  
     2     1     5 ar  
     3     1    23 1   
     4     2     3 ar  
     5     2    24 1   
     6     3     4 ar  
     7     3    27 1   
     8     4    26 ar  
     9     5    26 ar  
    10     6    49 1   
    11     7    49 1   
    12     8    49 1   
    13     9    10 ar  
    14     9    12 ar  
    15     9    49 1   
    16    10    11 ar  
    17    10    28 1   
    18    11    14 ar  
    19    11    29 1   
    20    12    13 ar  
    21    12    30 1   
    22    13    14 ar  
    23    13    16 1   
    24    14    15 1   
    25    15    17 1   
    26    15    47 1   
    27    16    17 2   
    28    17    48 1   
    29    18    19 1   
    30    18    21 1   
    31    18    48 1   
    32    19    20 1   
    33    19    33 1   
    34    19    34 1   
    35    20    23 1   
    36    20    35 1   
    37    20    36 1   
    38    21    22 1   
    39    21    37 1   
    40    21    38 1   
    41    22    23 1   
    42    22    39 1   
    43    22    40 1   
    44    24    25 1   
    45    24    41 1   
    46    24    42 1   
    47    25    43 1   
    48    25    44 1   
    49    25    45 1   
    50    26    46 1   
    51    31    48 1   
    52    32    48 1   
@<TRIPOS>SUBSTRUCTURE
     1 5FI         1 TEMP              0 ****  ****    0 ROOT
