@<TRIPOS>MOLECULE
5FJ
   57    60     1     0     0
SMALL
No Charge or Current Charge


@<TRIPOS>ATOM
      1 C2          -8.4040     0.6330     1.2430 c3         1 5FJ       0.323700
      2 C41          5.7940     0.9020    -0.2020 c          1 5FJ       0.651700
      3 C45          7.6620     2.6160     0.1380 c3         1 5FJ       0.140400
      4 C46          9.1870     2.4670     0.3430 c3         1 5FJ      -0.104433
      5 C50          7.4040     3.4440    -1.1460 c3         1 5FJ      -0.104433
      6 C11         -3.2370     0.0140     0.3930 ca         1 5FJ       0.444900
      7 C14         -1.2880    -0.9520    -0.3790 ca         1 5FJ       0.647900
      8 C15         -1.9950    -2.0170    -0.9530 ca         1 5FJ      -0.245000
      9 C17         -3.3910    -2.0540    -0.8450 ca         1 5FJ       0.020000
     10 C20          0.8980    -0.0690     0.5210 c6         1 5FJ       0.210800
     11 C23          2.3220    -0.6460     0.6920 c6         1 5FJ      -0.120900
     12 C26          3.0400    -0.7670    -0.6710 c6         1 5FJ       0.083300
     13 C28          2.1810    -1.6180    -1.6410 c6         1 5FJ      -0.120900
     14 F1          -9.6670     0.1710     1.0870 f          1 5FJ      -0.087667
     15 F3          -8.3680     1.8770     0.7110 f          1 5FJ      -0.087667
     16 F4          -8.1900     0.7620     2.5730 f          1 5FJ      -0.087667
     17 C5          -7.3750    -0.2760     0.6000 cc         1 5FJ       0.280300
     18 N6          -7.5870    -1.4060    -0.0590 nd         1 5FJ      -0.283000
     19 N7          -6.3520    -1.8590    -0.4480 nd         1 5FJ      -0.374000
     20 C8          -5.4770    -0.9740     0.0010 cc         1 5FJ       0.534500
     21 O9          -6.0560     0.0520     0.6720 os         1 5FJ      -0.253000
     22 C10         -4.0290    -1.0080    -0.1550 ca         1 5FJ      -0.288500
     23 N13         -1.8920     0.0450     0.2870 nb         1 5FJ      -0.758000
     24 N19          0.1120    -0.8720    -0.4630 nh         1 5FJ      -0.758300
     25 C31          0.7710    -1.0060    -1.7930 c6         1 5FJ       0.210800
     26 N34          4.4150    -1.3020    -0.4950 na         1 5FJ      -0.129500
     27 C35          4.7680    -2.6380    -0.4570 cc         1 5FJ       0.402400
     28 N37          6.0730    -2.7760    -0.2780 nd         1 5FJ      -0.673000
     29 C38          6.5750    -1.4970    -0.1800 cd         1 5FJ       0.264900
     30 C40          5.5740    -0.5620    -0.2960 cc         1 5FJ      -0.283600
     31 O42          4.8920     1.7210    -0.2890 o          1 5FJ      -0.621100
     32 N43          7.1140     1.2600    -0.0020 ns         1 5FJ      -0.498900
     33 C54          7.0540     3.3250     1.3740 c3         1 5FJ      -0.104433
     34 H1           9.4070     1.8800     1.2430 hc         1 5FJ       0.045478
     35 H2           9.6510     1.9620    -0.5140 hc         1 5FJ       0.045478
     36 H3           9.6660     3.4480     0.4560 hc         1 5FJ       0.045478
     37 H4           7.9020     4.4190    -1.0850 hc         1 5FJ       0.045478
     38 H5           7.7910     2.9220    -2.0300 hc         1 5FJ       0.045478
     39 H6           6.3360     3.6290    -1.3020 hc         1 5FJ       0.045478
     40 H7          -3.6840     0.8440     0.9390 h4         1 5FJ       0.032100
     41 H8          -1.4670    -2.8140    -1.4630 ha         1 5FJ       0.129000
     42 H9          -3.9550    -2.8760    -1.2840 ha         1 5FJ       0.141000
     43 H10          0.4100    -0.0710     1.5080 h1         1 5FJ       0.071450
     44 H11          0.9630     0.9790     0.1910 h1         1 5FJ       0.071450
     45 H12          2.8990     0.0000     1.3670 hc         1 5FJ       0.067950
     46 H13          2.2600    -1.6310     1.1740 hc         1 5FJ       0.067950
     47 H14          3.1190     0.2370    -1.1110 h1         1 5FJ       0.087700
     48 H15          2.6650    -1.6770    -2.6250 hc         1 5FJ       0.067950
     49 H16          2.0770    -2.6460    -1.2710 hc         1 5FJ       0.067950
     50 H17          0.8510    -0.0180    -2.2730 h1         1 5FJ       0.071450
     51 H18          0.1830    -1.6420    -2.4710 h1         1 5FJ       0.071450
     52 H19          4.0500    -3.4420    -0.5610 h5         1 5FJ       0.057100
     53 H20          7.6340    -1.3320    -0.0200 h4         1 5FJ       0.038100
     54 H21          7.7700     0.4940     0.0530 hn         1 5FJ       0.318500
     55 H22          7.5370     4.2960     1.5400 hc         1 5FJ       0.045478
     56 H23          5.9810     3.5090     1.2490 hc         1 5FJ       0.045478
     57 H24          7.1920     2.7200     2.2780 hc         1 5FJ       0.045478
@<TRIPOS>BOND
     1     1    14 1   
     2     1    15 1   
     3     1    16 1   
     4     1    17 1   
     5     2    30 1   
     6     2    31 2   
     7     2    32 1   
     8     3     4 1   
     9     3     5 1   
    10     3    32 1   
    11     3    33 1   
    12     4    34 1   
    13     4    35 1   
    14     4    36 1   
    15     5    37 1   
    16     5    38 1   
    17     5    39 1   
    18     6    22 ar  
    19     6    23 ar  
    20     6    40 1   
    21     7     8 ar  
    22     7    23 ar  
    23     7    24 1   
    24     8     9 ar  
    25     8    41 1   
    26     9    22 ar  
    27     9    42 1   
    28    10    11 1   
    29    10    24 1   
    30    10    43 1   
    31    10    44 1   
    32    11    12 1   
    33    11    45 1   
    34    11    46 1   
    35    12    13 1   
    36    12    26 1   
    37    12    47 1   
    38    13    25 1   
    39    13    48 1   
    40    13    49 1   
    41    17    18 2   
    42    17    21 1   
    43    18    19 1   
    44    19    20 2   
    45    20    21 1   
    46    20    22 1   
    47    24    25 1   
    48    25    50 1   
    49    25    51 1   
    50    26    27 1   
    51    26    30 1   
    52    27    28 2   
    53    27    52 1   
    54    28    29 1   
    55    29    30 2   
    56    29    53 1   
    57    32    54 1   
    58    33    55 1   
    59    33    56 1   
    60    33    57 1   
@<TRIPOS>SUBSTRUCTURE
     1 5FJ         1 TEMP              0 ****  ****    0 ROOT
