@<TRIPOS>MOLECULE
5FJ
   57    60     1     0     0
SMALL
bcc


@<TRIPOS>ATOM
      1 C2          -7.7070    -1.1530     2.1370 c3         1 5FJ       0.687600
      2 C41          5.5380     0.8380     0.2660 c          1 5FJ       0.718700
      3 C45          7.7620     1.9950     0.1320 c3         1 5FJ       0.140400
      4 C46          9.1880     1.4490     0.1970 c3         1 5FJ      -0.104433
      5 C50          7.5580     2.7240    -1.1970 c3         1 5FJ      -0.104433
      6 C11         -2.9980     0.1450     0.1830 ca         1 5FJ       0.510200
      7 C14         -1.1530     0.0060    -1.1840 ca         1 5FJ       0.713200
      8 C15         -1.7300    -1.0860    -1.8790 ca         1 5FJ      -0.328300
      9 C17         -2.9670    -1.5320    -1.5030 ca         1 5FJ       0.002000
     10 C20          0.7520     1.4320    -0.6170 c6         1 5FJ       0.210800
     11 C23          1.7550     0.6590     0.2340 c6         1 5FJ      -0.120900
     12 C26          2.7130    -0.1200    -0.6630 c6         1 5FJ       0.054000
     13 C28          1.9460    -1.0110    -1.6370 c6         1 5FJ      -0.120900
     14 F1          -8.7940    -1.8970     2.0000 f          1 5FJ      -0.208967
     15 F3          -8.0550     0.1310     2.0660 f          1 5FJ      -0.208967
     16 F4          -7.1980    -1.3640     3.3500 f          1 5FJ      -0.208967
     17 C5          -6.7180    -1.4980     1.0750 cc         1 5FJ       0.324700
     18 N6          -6.8060    -2.4060     0.1830 nd         1 5FJ      -0.283000
     19 N7          -5.6550    -2.3380    -0.5450 nd         1 5FJ      -0.374000
     20 C8          -4.9440    -1.3820    -0.0350 cc         1 5FJ       0.578900
     21 O9          -5.5750    -0.8090     1.0040 os         1 5FJ      -0.341800
     22 C10         -3.6460    -0.9160    -0.4420 ca         1 5FJ      -0.353800
     23 N13         -1.8070     0.5840    -0.1690 nb         1 5FJ      -0.758000
     24 N19          0.0510     0.5300    -1.5190 nh         1 5FJ      -0.758300
     25 C31          0.9670    -0.1420    -2.4220 c6         1 5FJ       0.210800
     26 N34          3.6800    -0.8770     0.1280 na         1 5FJ      -0.150900
     27 C35          3.4840    -2.1100     0.6340 cc         1 5FJ       0.402400
     28 N37          4.5140    -2.5410     1.3230 nd         1 5FJ      -0.673000
     29 C38          5.4270    -1.5400     1.2590 cd         1 5FJ       0.330200
     30 C40          4.9390    -0.4880     0.5240 cc         1 5FJ      -0.298200
     31 O42          4.8500     1.8430     0.1290 o          1 5FJ      -0.621100
     32 N43          6.8800     0.8260     0.2350 ns         1 5FJ      -0.565900
     33 C54          7.5380     2.9480     1.3080 c3         1 5FJ      -0.104433
     34 H1           9.3730     0.9390     1.1440 hc         1 5FJ       0.045478
     35 H2           9.3820     0.7460    -0.6150 hc         1 5FJ       0.045478
     36 H3           9.9050     2.2650     0.1100 hc         1 5FJ       0.045478
     37 H4           8.2940     3.5220    -1.2980 hc         1 5FJ       0.045478
     38 H5           7.6840     2.0400    -2.0380 hc         1 5FJ       0.045478
     39 H6           6.5680     3.1710    -1.2640 hc         1 5FJ       0.045478
     40 H7          -3.4620     0.6680     1.0120 h4         1 5FJ       0.032100
     41 H8          -1.2210    -1.5820    -2.6900 ha         1 5FJ       0.147000
     42 H9          -3.4130    -2.3680    -2.0270 ha         1 5FJ       0.159000
     43 H10          0.0410     1.9620     0.0080 h1         1 5FJ       0.071450
     44 H11          1.2750     2.1750    -1.2260 h1         1 5FJ       0.071450
     45 H12          2.3150     1.3530     0.8620 hc         1 5FJ       0.067950
     46 H13          1.2210    -0.0310     0.8950 hc         1 5FJ       0.067950
     47 H14          3.2860     0.5920    -1.2580 h1         1 5FJ       0.087700
     48 H15          2.6360    -1.5070    -2.3220 hc         1 5FJ       0.067950
     49 H16          1.3820    -1.7880    -1.1130 hc         1 5FJ       0.067950
     50 H17          1.5130     0.6250    -2.9780 h1         1 5FJ       0.071450
     51 H18          0.4360    -0.7290    -3.1660 h1         1 5FJ       0.071450
     52 H19          2.5750    -2.6670     0.4720 h5         1 5FJ       0.057100
     53 H20          6.3800    -1.6050     1.7640 h4         1 5FJ       0.038100
     54 H21          7.3310    -0.0750     0.2270 hn         1 5FJ       0.318500
     55 H22          8.2640     3.7610     1.2680 hc         1 5FJ       0.045478
     56 H23          6.5430     3.3890     1.2910 hc         1 5FJ       0.045478
     57 H24          7.6670     2.4270     2.2580 hc         1 5FJ       0.045478
@<TRIPOS>BOND
     1     1    14 1   
     2     1    15 1   
     3     1    16 1   
     4     1    17 1   
     5     2    30 1   
     6     2    31 2   
     7     2    32 1   
     8     3     4 1   
     9     3     5 1   
    10     3    32 1   
    11     3    33 1   
    12     4    34 1   
    13     4    35 1   
    14     4    36 1   
    15     5    37 1   
    16     5    38 1   
    17     5    39 1   
    18     6    22 ar  
    19     6    23 ar  
    20     6    40 1   
    21     7     8 ar  
    22     7    23 ar  
    23     7    24 1   
    24     8     9 ar  
    25     8    41 1   
    26     9    22 ar  
    27     9    42 1   
    28    10    11 1   
    29    10    24 1   
    30    10    43 1   
    31    10    44 1   
    32    11    12 1   
    33    11    45 1   
    34    11    46 1   
    35    12    13 1   
    36    12    26 1   
    37    12    47 1   
    38    13    25 1   
    39    13    48 1   
    40    13    49 1   
    41    17    18 2   
    42    17    21 1   
    43    18    19 1   
    44    19    20 2   
    45    20    21 1   
    46    20    22 1   
    47    24    25 1   
    48    25    50 1   
    49    25    51 1   
    50    26    27 1   
    51    26    30 1   
    52    27    28 2   
    53    27    52 1   
    54    28    29 1   
    55    29    30 2   
    56    29    53 1   
    57    32    54 1   
    58    33    55 1   
    59    33    56 1   
    60    33    57 1   
@<TRIPOS>SUBSTRUCTURE
     1 5FJ         1 TEMP              0 ****  ****    0 ROOT
