@<TRIPOS>MOLECULE
5FK
   53    56     1     0     0
SMALL
No Charge or Current Charge


@<TRIPOS>ATOM
      1 C1           2.7550    -0.0260    -0.9870 c6         1 5FK       0.274800
      2 C2           3.0610    -1.4270    -0.3850 c6         1 5FK      -0.106400
      3 C3           1.9970    -2.5070    -0.7900 c6         1 5FK       0.039300
      4 C5           0.3920    -0.5800    -0.5080 cc         1 5FK       0.332000
      5 C7           3.7470     1.0460    -0.5210 ca         1 5FK      -0.114300
      6 C8           3.8240     1.4200     0.8370 ca         1 5FK      -0.087000
      7 C9           4.7410     2.4000     1.2540 ca         1 5FK      -0.110000
      8 C10          5.5930     3.0200     0.3210 ca         1 5FK      -0.061300
      9 C11          5.5170     2.6490    -1.0340 ca         1 5FK      -0.110000
     10 C12          4.6000     1.6690    -1.4530 ca         1 5FK      -0.087000
     11 C13          2.2650    -3.8820    -0.0950 c3         1 5FK       0.306000
     12 C17         -0.9440    -0.4570    -0.3300 cd         1 5FK      -0.357600
     13 C18         -1.4550    -1.7720    -0.2970 cd         1 5FK       0.315900
     14 C20         -1.6590     0.8180    -0.2120 c          1 5FK       0.667700
     15 C23         -3.9660     1.7800     0.1120 c3         1 5FK       0.060700
     16 C24         -5.4210     1.3330     0.2990 ca         1 5FK       0.325300
     17 C25         -6.4420     2.2940     0.4510 ca         1 5FK      -0.132000
     18 C26         -7.7740     1.8730     0.6220 ca         1 5FK      -0.108000
     19 C27         -8.0340     0.4940     0.6340 ca         1 5FK       0.117000
     20 C28         -6.9610    -0.4070     0.4760 ca         1 5FK       0.316900
     21 C32          6.5900     4.0780     0.7750 c3         1 5FK      -0.035100
     22 F58          3.5490    -4.2790    -0.2610 f          1 5FK      -0.104667
     23 F57          2.0350    -3.8290     1.2380 f          1 5FK      -0.104667
     24 F56          1.4890    -4.8690    -0.6020 f          1 5FK      -0.104667
     25 C33          7.9450     3.4650     1.1740 c3         1 5FK      -0.087100
     26 N6           1.3860     0.3530    -0.6250 nu         1 5FK      -0.928200
     27 N4           0.6320    -1.9500    -0.5670 na         1 5FK       0.064800
     28 N19         -0.5250    -2.7000    -0.4480 nc         1 5FK      -0.518800
     29 O22         -1.1230     1.9150    -0.2670 o          1 5FK      -0.662100
     30 N21         -3.0090     0.6710    -0.0340 ns         1 5FK      -0.495900
     31 N29         -5.6730    -0.0050     0.3110 nb         1 5FK      -0.673000
     32 F30         -9.2990     0.0410     0.7950 f          1 5FK      -0.165000
     33 H1           2.8200    -0.1080    -2.0830 h1         1 5FK       0.045700
     34 H2           4.0630    -1.7410    -0.7070 hc         1 5FK       0.083700
     35 H3           3.1010    -1.3500     0.7090 hc         1 5FK       0.083700
     36 H4           2.0890    -2.6780    -1.8720 h1         1 5FK       0.092700
     37 H5           3.1690     0.9540     1.5700 ha         1 5FK       0.120500
     38 H6           4.7900     2.6760     2.3050 ha         1 5FK       0.116000
     39 H7           6.1720     3.1180    -1.7650 ha         1 5FK       0.116000
     40 H8           4.5570     1.3940    -2.5050 ha         1 5FK       0.120500
     41 H9          -2.4850    -2.0840    -0.1740 h4         1 5FK       0.041100
     42 H10         -3.9040     2.4150    -0.7810 h1         1 5FK       0.062200
     43 H11         -3.6690     2.3870     0.9780 h1         1 5FK       0.062200
     44 H12         -6.1990     3.3540     0.4350 ha         1 5FK       0.132000
     45 H13         -8.5810     2.5920     0.7410 ha         1 5FK       0.140000
     46 H14         -7.1360    -1.4820     0.4820 h4         1 5FK       0.039100
     47 H15          6.7530     4.8130    -0.0230 hc         1 5FK       0.047700
     48 H16          6.1870     4.6390     1.6280 hc         1 5FK       0.047700
     49 H17          8.3930     2.9330     0.3270 hc         1 5FK       0.036033
     50 H18          8.6410     4.2500     1.4960 hc         1 5FK       0.036033
     51 H19          7.8190     2.7560     2.0020 hc         1 5FK       0.036033
     52 H20          1.0870     1.3320    -0.6390 hn         1 5FK       0.529000
     53 H21         -3.3800    -0.2700     0.0010 hn         1 5FK       0.345500
@<TRIPOS>BOND
     1     1     2 1   
     2     1     5 1   
     3     1    26 1   
     4     1    33 1   
     5     2     3 1   
     6     2    34 1   
     7     2    35 1   
     8     3    11 1   
     9     3    27 1   
    10     3    36 1   
    11     4    12 2   
    12     4    26 1   
    13     4    27 1   
    14     5     6 ar  
    15     5    10 ar  
    16     6     7 ar  
    17     6    37 1   
    18     7     8 ar  
    19     7    38 1   
    20     8     9 ar  
    21     8    21 1   
    22     9    10 ar  
    23     9    39 1   
    24    10    40 1   
    25    11    22 1   
    26    11    23 1   
    27    11    24 1   
    28    12    13 1   
    29    12    14 1   
    30    13    28 2   
    31    13    41 1   
    32    14    29 2   
    33    14    30 1   
    34    15    16 1   
    35    15    30 1   
    36    15    42 1   
    37    15    43 1   
    38    16    17 ar  
    39    16    31 ar  
    40    17    18 ar  
    41    17    44 1   
    42    18    19 ar  
    43    18    45 1   
    44    19    20 ar  
    45    19    32 1   
    46    20    31 ar  
    47    20    46 1   
    48    21    25 1   
    49    21    47 1   
    50    21    48 1   
    51    25    49 1   
    52    25    50 1   
    53    25    51 1   
    54    26    52 1   
    55    27    28 1   
    56    30    53 1   
@<TRIPOS>SUBSTRUCTURE
     1 5FK         1 TEMP              0 ****  ****    0 ROOT
