@<TRIPOS>MOLECULE
5FK
   53    56     1     0     0
SMALL
abcg2


@<TRIPOS>ATOM
      1 C1           2.6440     0.0670    -0.9330 c6         1 5FK       0.274800
      2 C2           3.0530    -1.3210    -0.4420 c6         1 5FK      -0.106400
      3 C3           2.0310    -2.3880    -0.8470 c6         1 5FK       0.039300
      4 C5           0.3940    -0.5790    -0.4240 cc         1 5FK       0.332000
      5 C7           3.6590     1.1020    -0.5240 ca         1 5FK      -0.114300
      6 C8           3.6880     1.6130     0.7700 ca         1 5FK      -0.087000
      7 C9           4.6430     2.5490     1.1350 ca         1 5FK      -0.110000
      8 C10          5.5980     2.9990     0.2250 ca         1 5FK      -0.061300
      9 C11          5.5670     2.4780    -1.0640 ca         1 5FK      -0.110000
     10 C12          4.6090     1.5450    -1.4360 ca         1 5FK      -0.087000
     11 C13          2.2550    -3.6760    -0.0580 c3         1 5FK       0.306000
     12 C17         -0.9920    -0.5150    -0.3020 cd         1 5FK      -0.357600
     13 C18         -1.4010    -1.8600    -0.4550 cd         1 5FK       0.315900
     14 C20         -1.7400     0.7180    -0.1040 c          1 5FK       0.667700
     15 C23         -3.9200     1.7360     0.2680 c3         1 5FK       0.060700
     16 C24         -5.3600     1.3010     0.3670 ca         1 5FK       0.325300
     17 C25         -6.3660     2.2520     0.5100 ca         1 5FK      -0.132000
     18 C26         -7.6790     1.8360     0.6000 ca         1 5FK      -0.108000
     19 C27         -7.9250     0.4770     0.5390 ca         1 5FK       0.117000
     20 C28         -6.8800    -0.4120     0.4020 ca         1 5FK       0.316900
     21 C32          6.6510     3.9890     0.6390 c3         1 5FK      -0.035100
     22 F58          3.5480    -4.0210    -0.1040 f          1 5FK      -0.104667
     23 F57          1.9230    -3.5340     1.2280 f          1 5FK      -0.104667
     24 F56          1.5660    -4.7080    -0.5410 f          1 5FK      -0.104667
     25 C33          7.8680     3.3090     1.2610 c3         1 5FK      -0.087100
     26 N6           1.3460     0.3790    -0.3690 nu         1 5FK      -0.928200
     27 N4           0.7020    -1.8750    -0.6150 na         1 5FK       0.064800
     28 N19         -0.3950    -2.6680    -0.6510 nc         1 5FK      -0.518800
     29 O22         -1.1780     1.8150    -0.0910 o          1 5FK      -0.662100
     30 N21         -3.0680     0.6010     0.0550 ns         1 5FK      -0.495900
     31 N29         -5.6230     0.0050     0.3190 nb         1 5FK      -0.673000
     32 F30         -9.1780     0.0200     0.6110 f          1 5FK      -0.165000
     33 H1           2.5940     0.0470    -2.0300 h1         1 5FK       0.045700
     34 H2           4.0200    -1.5750    -0.8690 hc         1 5FK       0.083700
     35 H3           3.1670    -1.2850     0.6440 hc         1 5FK       0.083700
     36 H4           2.1510    -2.6310    -1.9090 h1         1 5FK       0.092700
     37 H5           2.9540     1.2900     1.4980 ha         1 5FK       0.120500
     38 H6           4.6410     2.9410     2.1460 ha         1 5FK       0.116000
     39 H7           6.2920     2.8140    -1.7960 ha         1 5FK       0.116000
     40 H8           4.6000     1.1680    -2.4510 ha         1 5FK       0.120500
     41 H9          -2.4050    -2.2610    -0.4360 h4         1 5FK       0.041100
     42 H10         -3.8170     2.4580    -0.5470 h1         1 5FK       0.062200
     43 H11         -3.6450     2.2680     1.1850 h1         1 5FK       0.062200
     44 H12         -6.1270     3.3070     0.5480 ha         1 5FK       0.132000
     45 H13         -8.4880     2.5450     0.7080 ha         1 5FK       0.140000
     46 H14         -7.0610    -1.4800     0.3580 h4         1 5FK       0.039100
     47 H15          6.9660     4.5730    -0.2280 hc         1 5FK       0.047700
     48 H16          6.2270     4.6990     1.3520 hc         1 5FK       0.047700
     49 H17          8.3370     2.6220     0.5560 hc         1 5FK       0.036033
     50 H18          8.6150     4.0450     1.5580 hc         1 5FK       0.036033
     51 H19          7.5910     2.7370     2.1470 hc         1 5FK       0.036033
     52 H20          0.9920     1.3160    -0.4860 hn         1 5FK       0.529000
     53 H21         -3.5220    -0.3000     0.0910 hn         1 5FK       0.345500
@<TRIPOS>BOND
     1     1     2 1   
     2     1     5 1   
     3     1    26 1   
     4     1    33 1   
     5     2     3 1   
     6     2    34 1   
     7     2    35 1   
     8     3    11 1   
     9     3    27 1   
    10     3    36 1   
    11     4    12 2   
    12     4    26 1   
    13     4    27 1   
    14     5     6 ar  
    15     5    10 ar  
    16     6     7 ar  
    17     6    37 1   
    18     7     8 ar  
    19     7    38 1   
    20     8     9 ar  
    21     8    21 1   
    22     9    10 ar  
    23     9    39 1   
    24    10    40 1   
    25    11    22 1   
    26    11    23 1   
    27    11    24 1   
    28    12    13 1   
    29    12    14 1   
    30    13    28 2   
    31    13    41 1   
    32    14    29 2   
    33    14    30 1   
    34    15    16 1   
    35    15    30 1   
    36    15    42 1   
    37    15    43 1   
    38    16    17 ar  
    39    16    31 ar  
    40    17    18 ar  
    41    17    44 1   
    42    18    19 ar  
    43    18    45 1   
    44    19    20 ar  
    45    19    32 1   
    46    20    31 ar  
    47    20    46 1   
    48    21    25 1   
    49    21    47 1   
    50    21    48 1   
    51    25    49 1   
    52    25    50 1   
    53    25    51 1   
    54    26    52 1   
    55    27    28 1   
    56    30    53 1   
@<TRIPOS>SUBSTRUCTURE
     1 5FK         1 TEMP              0 ****  ****    0 ROOT
