@<TRIPOS>MOLECULE
5FL
   23    24     1     0     0
SMALL
No Charge or Current Charge


@<TRIPOS>ATOM
      1 C1           2.7710     0.9160     0.4330 ca         1 5FL      -0.163500
      2 C2           1.7150     0.0870    -0.0140 cp         1 5FL       0.046000
      3 C3           2.0790    -1.2160    -0.4280 ca         1 5FL      -0.163500
      4 C4           3.4220    -1.6200    -0.3810 ca         1 5FL       0.320400
      5 C5           0.2940     0.5640    -0.0480 cp         1 5FL      -0.101000
      6 C6          -0.7840    -0.3290     0.1850 ca         1 5FL      -0.062000
      7 C7          -2.1310     0.1040     0.1570 ca         1 5FL      -0.141600
      8 C8          -2.3970     1.4660    -0.1140 ca         1 5FL      -0.070000
      9 O           -2.9950    -2.0440     0.6330 o          1 5FL      -0.718000
     10 C11         -3.2680    -0.8720     0.4140 c          1 5FL       0.713600
     11 O1          -4.4160    -0.4520     0.3930 o          1 5FL      -0.718000
     12 C9          -1.3440     2.3650    -0.3470 ca         1 5FL      -0.152000
     13 C10         -0.0140     1.9200    -0.3140 ca         1 5FL      -0.116000
     14 C            4.0880     0.4320     0.4500 ca         1 5FL       0.320400
     15 N            4.4200    -0.8160     0.0510 nb         1 5FL      -0.693000
     16 H1           2.5760     1.9260     0.7800 ha         1 5FL       0.127000
     17 H2           1.3330    -1.9110    -0.8000 ha         1 5FL       0.127000
     18 H3           3.7120    -2.6200    -0.7020 h4         1 5FL       0.003600
     19 H4          -0.5670    -1.3710     0.4070 ha         1 5FL       0.132000
     20 H5          -3.4210     1.8330    -0.1440 ha         1 5FL       0.129000
     21 H6          -1.5610     3.4090    -0.5570 ha         1 5FL       0.088000
     22 H7           0.7820     2.6330    -0.5110 ha         1 5FL       0.087000
     23 H            4.9060     1.0630     0.7970 h4         1 5FL       0.003600
@<TRIPOS>BOND
     1     1     2 ar  
     2     1    14 ar  
     3     1    16 1   
     4     2     3 ar  
     5     2     5 1   
     6     3     4 ar  
     7     3    17 1   
     8     4    15 ar  
     9     4    18 1   
    10     5     6 ar  
    11     5    13 ar  
    12     6     7 ar  
    13     6    19 1   
    14     7     8 ar  
    15     7    10 1   
    16     8    12 ar  
    17     8    20 1   
    18     9    10 1   
    19    10    11 1   
    20    12    13 ar  
    21    12    21 1   
    22    13    22 1   
    23    14    15 ar  
    24    14    23 1   
@<TRIPOS>SUBSTRUCTURE
     1 5FL         1 TEMP              0 ****  ****    0 ROOT
