@<TRIPOS>MOLECULE
5FL
   23    24     1     0     0
SMALL
bcc


@<TRIPOS>ATOM
      1 C1           2.7300     0.9070     0.4460 ca         1 5FL      -0.246800
      2 C2           1.6930     0.0970    -0.0160 cp         1 5FL       0.046000
      3 C3           2.0410    -1.1850    -0.4400 ca         1 5FL      -0.246800
      4 C4           3.3670    -1.5830    -0.3860 ca         1 5FL       0.385700
      5 C5           0.2960     0.5690    -0.0520 cp         1 5FL      -0.101000
      6 C6          -0.7570    -0.3140     0.1820 ca         1 5FL      -0.080000
      7 C7          -2.0810     0.1080     0.1550 ca         1 5FL      -0.141600
      8 C8          -2.3500     1.4460    -0.1210 ca         1 5FL      -0.088000
      9 O           -2.8820    -2.0510     0.6810 o          1 5FL      -0.823300
     10 C11         -3.2130    -0.8760     0.4310 c          1 5FL       0.924200
     11 O1          -4.3700    -0.4190     0.3850 o          1 5FL      -0.823300
     12 C9          -1.3130     2.3380    -0.3590 ca         1 5FL      -0.170000
     13 C10          0.0040     1.9060    -0.3220 ca         1 5FL      -0.134000
     14 C            4.0240     0.4130     0.4590 ca         1 5FL       0.385700
     15 N            4.3530    -0.8080     0.0530 nb         1 5FL      -0.693000
     16 H1           2.5400     1.9060     0.8140 ha         1 5FL       0.145000
     17 H2           1.2970    -1.8690    -0.8280 ha         1 5FL       0.145000
     18 H3           3.6430    -2.5770    -0.7190 h4         1 5FL       0.003600
     19 H4          -0.5510    -1.3520     0.4120 ha         1 5FL       0.150000
     20 H5          -3.3760     1.7880    -0.1510 ha         1 5FL       0.147000
     21 H6          -1.5300     3.3760    -0.5780 ha         1 5FL       0.106000
     22 H7           0.8010     2.6100    -0.5260 ha         1 5FL       0.105000
     23 H            4.8330     1.0380     0.8210 h4         1 5FL       0.003600
@<TRIPOS>BOND
     1     1     2 ar  
     2     1    14 ar  
     3     1    16 1   
     4     2     3 ar  
     5     2     5 1   
     6     3     4 ar  
     7     3    17 1   
     8     4    15 ar  
     9     4    18 1   
    10     5     6 ar  
    11     5    13 ar  
    12     6     7 ar  
    13     6    19 1   
    14     7     8 ar  
    15     7    10 1   
    16     8    12 ar  
    17     8    20 1   
    18     9    10 1   
    19    10    11 1   
    20    12    13 ar  
    21    12    21 1   
    22    13    22 1   
    23    14    15 ar  
    24    14    23 1   
@<TRIPOS>SUBSTRUCTURE
     1 5FL         1 TEMP              0 ****  ****    0 ROOT
