@<TRIPOS>MOLECULE
5FN
   27    28     1     0     0
SMALL
No Charge or Current Charge


@<TRIPOS>ATOM
      1 F1           1.4960     0.4220     2.1540 f          1 5FN      -0.264000
      2 C5           1.3400     0.4200     0.7520 c6         1 5FN       0.403000
      3 C6           2.5220     1.2620     0.1480 c3         1 5FN       0.147600
      4 O24          2.4330     1.4730    -1.2840 oh         1 5FN      -0.718000
      5 C4           1.3330    -1.0720     0.2310 c6         1 5FN       0.089300
      6 O22          2.2750    -1.9520     0.9140 oh         1 5FN      -0.711000
      7 C3          -0.1100    -1.6170     0.3580 c6         1 5FN       0.185300
      8 O21         -0.1170    -3.0130     0.0180 oh         1 5FN      -0.650000
      9 O23          0.0910     1.1110     0.4830 os         1 5FN      -0.443000
     10 C1          -0.6650     0.7220    -0.6880 c5         1 5FN       0.356300
     11 O1          -1.9230     1.3980    -0.6080 os         1 5FN      -0.465600
     12 C7          -2.8020     0.4590    -0.1500 c2         1 5FN       0.596600
     13 C9          -4.1720     0.9910     0.1720 c3         1 5FN      -0.117400
     14 N1          -2.4540    -0.7800    -0.1100 n2         1 5FN      -0.630900
     15 C2          -1.0400    -0.7920    -0.5850 c5         1 5FN       0.061500
     16 H61C         2.5340     2.2310     0.6670 h1         1 5FN       0.052700
     17 H62C         3.4650     0.7570     0.3980 h1         1 5FN       0.052700
     18 H4           1.5810    -1.0500    -0.8420 h1         1 5FN       0.075700
     19 H24          3.1760     2.0720    -1.5390 ho         1 5FN       0.512000
     20 H22          3.1900    -1.6480     0.7020 ho         1 5FN       0.516000
     21 H3          -0.4370    -1.4760     1.4010 h1         1 5FN       0.075700
     22 H21          0.7520    -3.3370     0.3530 ho         1 5FN       0.460000
     23 H2          -0.9860    -1.2430    -1.5860 h1         1 5FN       0.104700
     24 H1          -0.1240     0.9690    -1.6130 h2         1 5FN       0.107700
     25 H91C        -4.1040     1.8540     0.8420 hc         1 5FN       0.067367
     26 H92C        -4.6870     1.3060    -0.7410 hc         1 5FN       0.067367
     27 H93C        -4.7860     0.2280     0.6630 hc         1 5FN       0.067367
@<TRIPOS>BOND
     1     1     2 1   
     2     2     3 1   
     3     2     5 1   
     4     2     9 1   
     5     3     4 1   
     6     3    16 1   
     7     3    17 1   
     8     4    19 1   
     9     5     6 1   
    10     5     7 1   
    11     5    18 1   
    12     6    20 1   
    13     7     8 1   
    14     7    15 1   
    15     7    21 1   
    16     8    22 1   
    17     9    10 1   
    18    10    11 1   
    19    10    15 1   
    20    10    24 1   
    21    11    12 1   
    22    12    13 1   
    23    12    14 2   
    24    13    25 1   
    25    13    26 1   
    26    13    27 1   
    27    14    15 1   
    28    15    23 1   
@<TRIPOS>SUBSTRUCTURE
     1 5FN         1 TEMP              0 ****  ****    0 ROOT
