@<TRIPOS>MOLECULE
5FN
   27    28     1     0     0
SMALL
bcc


@<TRIPOS>ATOM
      1 F1           0.4520     0.7560     1.4380 f          1 5FN      -0.245300
      2 C5           1.1380     0.5820     0.2390 c6         1 5FN       0.361100
      3 C6           2.4470     1.3370     0.3820 c3         1 5FN       0.124400
      4 O24          3.2320     1.0710    -0.7510 oh         1 5FN      -0.595800
      5 C4           1.2930    -0.9160    -0.0270 c6         1 5FN       0.066100
      6 O22          2.1510    -1.5320     0.8970 oh         1 5FN      -0.588800
      7 C3          -0.0660    -1.5910     0.0810 c6         1 5FN       0.162100
      8 O21         -0.0150    -2.9260    -0.3570 oh         1 5FN      -0.587800
      9 O23          0.4080     1.1640    -0.7790 os         1 5FN      -0.396600
     10 C1          -0.8170     0.6150    -1.1380 c5         1 5FN       0.309900
     11 O1          -1.8660     1.3300    -0.4960 os         1 5FN      -0.442400
     12 C7          -2.6910     0.4210     0.0640 c2         1 5FN       0.596600
     13 C9          -3.8750     0.9710     0.7630 c3         1 5FN      -0.117400
     14 N1          -2.3840    -0.8010    -0.0520 n2         1 5FN      -0.630900
     15 C2          -1.1190    -0.8630    -0.7640 c5         1 5FN       0.061500
     16 H61C         2.2230     2.4060     0.4930 h1         1 5FN       0.052700
     17 H62C         2.9290     1.0090     1.3090 h1         1 5FN       0.052700
     18 H4           1.6630    -1.0310    -1.0530 h1         1 5FN       0.075700
     19 H24          4.1150     1.4150    -0.5920 ho         1 5FN       0.413000
     20 H22          3.0540    -1.4740     0.5700 ho         1 5FN       0.417000
     21 H3          -0.3850    -1.5460     1.1300 h1         1 5FN       0.075700
     22 H21          0.5740    -3.4110     0.2320 ho         1 5FN       0.421000
     23 H2          -1.2380    -1.4260    -1.6940 h1         1 5FN       0.104700
     24 H1          -0.9090     0.7830    -2.2110 h2         1 5FN       0.107700
     25 H91C        -3.5680     1.6420     1.5660 hc         1 5FN       0.067367
     26 H92C        -4.4960     1.5460     0.0760 hc         1 5FN       0.067367
     27 H93C        -4.4680     0.1650     1.1860 hc         1 5FN       0.067367
@<TRIPOS>BOND
     1     1     2 1   
     2     2     3 1   
     3     2     5 1   
     4     2     9 1   
     5     3     4 1   
     6     3    16 1   
     7     3    17 1   
     8     4    19 1   
     9     5     6 1   
    10     5     7 1   
    11     5    18 1   
    12     6    20 1   
    13     7     8 1   
    14     7    15 1   
    15     7    21 1   
    16     8    22 1   
    17     9    10 1   
    18    10    11 1   
    19    10    15 1   
    20    10    24 1   
    21    11    12 1   
    22    12    13 1   
    23    12    14 2   
    24    13    25 1   
    25    13    26 1   
    26    13    27 1   
    27    14    15 1   
    28    15    23 1   
@<TRIPOS>SUBSTRUCTURE
     1 5FN         1 TEMP              0 ****  ****    0 ROOT
