@<TRIPOS>MOLECULE
5FO
   57    59     1     0     0
SMALL
bcc


@<TRIPOS>ATOM
      1 CAA          3.3880     5.2070    -1.5440 c3         1 5FO      -0.091100
      2 CAB          5.6300     0.2020    -0.2430 c3         1 5FO      -0.084100
      3 OAD          1.6660    -3.3670    -2.3110 o          1 5FO      -0.594500
      4 OAE         -2.8920    -1.4300     2.6220 o          1 5FO      -0.604800
      5 OAF         -3.9430     0.8540     2.7070 o          1 5FO      -0.604800
      6 FAG          4.2750    -3.1780    -1.4790 f          1 5FO      -0.142500
      7 CAH         -1.6150     1.9260     1.2680 ca         1 5FO       0.032000
      8 CAI         -0.4860     2.4850     0.6960 ca         1 5FO      -0.257000
      9 CAJ         -0.7030    -0.2750     0.9380 ca         1 5FO       0.023000
     10 CAK          3.1040     3.7260    -1.3370 c3         1 5FO      -0.082400
     11 CAL          5.0630    -1.0850     0.3550 c3         1 5FO      -0.028200
     12 CAM          1.8140     3.5210    -0.5740 c3         1 5FO       0.138400
     13 CAN         -3.1680    -1.4790    -1.4110 c6         1 5FO       0.135300
     14 CAO         -3.9840     0.7610    -1.4240 c6         1 5FO       0.135300
     15 CAP         -3.8970    -1.7660    -0.1100 c6         1 5FO       0.205300
     16 CAQ         -4.7480     0.5180    -0.1330 c6         1 5FO       0.205300
     17 NAR          2.7150    -0.4840     0.3220 nc         1 5FO      -0.608300
     18 NAS          1.1520    -1.5730    -1.0020 ns         1 5FO      -0.478400
     19 OAT          1.6280     2.1180    -0.3920 os         1 5FO      -0.300900
     20 CAU         -1.7310     0.5490     1.3780 ca         1 5FO      -0.353500
     21 CAV          0.5400     1.6690     0.2200 ca         1 5FO       0.249100
     22 CAW          3.6750    -1.3390    -0.1400 cc         1 5FO       0.154400
     23 CAX          3.3570    -2.3240    -1.0140 cd         1 5FO      -0.024700
     24 CAY          0.4290     0.2730     0.3630 ca         1 5FO      -0.220900
     25 CAZ          1.5100    -0.6150    -0.1130 cd         1 5FO       0.562500
     26 CBA          2.0240    -2.5150    -1.5190 c          1 5FO       0.690700
     27 NBB         -3.8580    -0.4690    -2.1820 n3         1 5FO      -0.706600
     28 NBC         -4.1500    -0.5520     0.6630 n3         1 5FO      -0.746500
     29 HAA          2.5860     5.6940    -2.1020 hc         1 5FO       0.039033
     30 HAAA         3.4960     5.7290    -0.5930 hc         1 5FO       0.039033
     31 HAAB         4.3110     5.3480    -2.1050 hc         1 5FO       0.039033
     32 HAB          5.7440     0.1180    -1.3240 hc         1 5FO       0.039367
     33 HABA         4.9780     1.0520    -0.0370 hc         1 5FO       0.039367
     34 HABB         6.6090     0.4180     0.1820 hc         1 5FO       0.039367
     35 HAC         -3.1920    -1.1720    -4.0310 h1         1 5FO       0.035367
     36 HACA        -3.7710     0.4940    -4.0330 h1         1 5FO       0.035367
     37 HACB        -2.1770     0.1140    -3.3600 h1         1 5FO       0.035367
     38 HAH         -2.4010     2.5790     1.6230 ha         1 5FO       0.159000
     39 HAI         -0.4230     3.5610     0.6180 ha         1 5FO       0.147000
     40 HAJ         -0.7720    -1.3500     1.0580 ha         1 5FO       0.158000
     41 HAK          3.0350     3.2220    -2.3040 hc         1 5FO       0.059700
     42 HAKA         3.9280     3.2610    -0.7910 hc         1 5FO       0.059700
     43 HAL          5.7210    -1.9230     0.1310 hc         1 5FO       0.064700
     44 HALA         5.0200    -0.9950     1.4420 hc         1 5FO       0.064700
     45 HAM          1.8580     4.0190     0.4010 h1         1 5FO       0.042200
     46 HAMA         0.9700     3.9430    -1.1300 h1         1 5FO       0.042200
     47 HAN         -2.1240    -1.1780    -1.2000 h1         1 5FO       0.037450
     48 HANA        -3.1170    -2.4040    -1.9900 h1         1 5FO       0.037450
     49 HAO         -4.5370     1.4920    -2.0180 h1         1 5FO       0.037450
     50 HAOA        -2.9990     1.2080    -1.2000 h1         1 5FO       0.037450
     51 HAP         -4.8700    -2.2120    -0.3330 h1         1 5FO       0.076950
     52 HAPA        -3.3440    -2.4890     0.4860 h1         1 5FO       0.076950
     53 HAQ         -4.8120     1.4350     0.4490 h1         1 5FO       0.076950
     54 HAQA        -5.7720     0.2140    -0.3650 h1         1 5FO       0.076950
     55 HNAS         0.1980    -1.6030    -1.3420 hn         1 5FO       0.328500
     56 SBD         -3.2300    -0.1760     1.9690 sy         1 5FO       1.319200
     57 CAC         -3.2140    -0.2450    -3.4560 c3         1 5FO       0.149100
@<TRIPOS>BOND
     1     1    10 1   
     2     1    29 1   
     3     1    30 1   
     4     1    31 1   
     5     2    11 1   
     6     2    32 1   
     7     2    33 1   
     8     2    34 1   
     9     3    26 2   
    10     4    56 2   
    11     5    56 2   
    12     6    23 1   
    13     7     8 ar  
    14     7    20 ar  
    15     7    38 1   
    16     8    21 ar  
    17     8    39 1   
    18     9    20 ar  
    19     9    24 ar  
    20     9    40 1   
    21    10    12 1   
    22    10    41 1   
    23    10    42 1   
    24    11    22 1   
    25    11    43 1   
    26    11    44 1   
    27    12    19 1   
    28    12    45 1   
    29    12    46 1   
    30    13    15 1   
    31    13    27 1   
    32    13    47 1   
    33    13    48 1   
    34    14    16 1   
    35    14    27 1   
    36    14    49 1   
    37    14    50 1   
    38    15    28 1   
    39    15    51 1   
    40    15    52 1   
    41    16    28 1   
    42    16    53 1   
    43    16    54 1   
    44    17    22 1   
    45    17    25 2   
    46    18    25 1   
    47    18    26 1   
    48    18    55 1   
    49    19    21 1   
    50    20    56 1   
    51    21    24 ar  
    52    22    23 2   
    53    23    26 1   
    54    24    25 1   
    55    27    57 1   
    56    28    56 1   
    57    35    57 1   
    58    36    57 1   
    59    37    57 1   
@<TRIPOS>SUBSTRUCTURE
     1 5FO         1 TEMP              0 ****  ****    0 ROOT
