@<TRIPOS>MOLECULE
5FO
   57    59     1     0     0
SMALL
No Charge or Current Charge


@<TRIPOS>ATOM
      1 CAA          3.6450     6.0960    -0.2230 c3         1 5FO      -0.091100
      2 CAB          6.3140     0.8570    -0.3660 c3         1 5FO      -0.084100
      3 OAD          2.5340    -1.9920    -3.5710 o          1 5FO      -0.519000
      4 OAE         -2.5930    -1.9990     1.0180 o          1 5FO      -0.534000
      5 OAF         -3.3090    -0.1270     2.6230 o          1 5FO      -0.534000
      6 FAG          5.1250    -1.8910    -2.4870 f          1 5FO      -0.142500
      7 CAH         -1.4220     1.7780     1.1420 ca         1 5FO       0.050000
      8 CAI         -0.3080     2.5590     0.8020 ca         1 5FO      -0.239000
      9 CAJ         -0.2980    -0.1980     0.2650 ca         1 5FO       0.041000
     10 CAK          3.3920     4.5920    -0.4470 c3         1 5FO      -0.082400
     11 CAL          5.5740    -0.4400     0.0170 c3         1 5FO      -0.028200
     12 CAM          2.0220     4.1260     0.0820 c3         1 5FO       0.161600
     13 CAN         -5.4820    -2.0130    -0.4360 c6         1 5FO       0.135300
     14 CAO         -3.7070    -1.2940    -1.9810 c6         1 5FO       0.135300
     15 CAP         -5.3760    -0.6430     0.3150 c6         1 5FO       0.205300
     16 CAQ         -3.6210     0.0770    -1.2360 c6         1 5FO       0.205300
     17 NAR          3.1670     0.0300    -0.0800 nc         1 5FO      -0.608300
     18 NAS          1.7860    -0.7480    -1.8460 ns         1 5FO      -0.411400
     19 OAT          1.9170     2.7190    -0.1840 os         1 5FO      -0.324100
     20 CAU         -1.4170     0.4000     0.8730 ca         1 5FO      -0.353500
     21 CAV          0.8200     1.9680     0.1930 ca         1 5FO       0.249100
     22 CAW          4.2470    -0.5890    -0.6900 cc         1 5FO       0.154400
     23 CAX          4.0830    -1.2870    -1.8760 cd         1 5FO      -0.024700
     24 CAY          0.8230     0.5840    -0.0770 ca         1 5FO      -0.220900
     25 CAZ          1.9870    -0.0610    -0.6890 cd         1 5FO       0.562500
     26 CBA          2.7620    -1.3950    -2.5290 c          1 5FO       0.548200
     27 NBB         -5.0640    -1.9110    -1.8690 n3         1 5FO      -0.706600
     28 NBC         -4.0240    -0.0220     0.2000 n3         1 5FO      -0.746500
     29 HAA          2.8850     6.6980    -0.7360 hc         1 5FO       0.039033
     30 HAAA         3.6170     6.3400     0.8460 hc         1 5FO       0.039033
     31 HAAB         4.6290     6.3810    -0.6140 hc         1 5FO       0.039033
     32 HAB          6.5180     0.8820    -1.4440 hc         1 5FO       0.039367
     33 HABA         5.7120     1.7370    -0.1080 hc         1 5FO       0.039367
     34 HABB         7.2700     0.9260     0.1670 hc         1 5FO       0.039367
     35 HAC         -6.1960    -3.5890    -2.5340 h1         1 5FO       0.035367
     36 HACA        -4.9150    -3.0710    -3.6500 h1         1 5FO       0.035367
     37 HACB        -4.4930    -3.9470    -2.1590 h1         1 5FO       0.035367
     38 HAH         -2.2900     2.2480     1.6060 ha         1 5FO       0.141000
     39 HAI         -0.3420     3.6220     1.0130 ha         1 5FO       0.129000
     40 HAJ         -0.2900    -1.2700     0.0650 ha         1 5FO       0.140000
     41 HAK          3.4580     4.3720    -1.5190 hc         1 5FO       0.059700
     42 HAKA         4.1840     4.0170     0.0500 hc         1 5FO       0.059700
     43 HAL          6.2200    -1.2980    -0.2050 hc         1 5FO       0.064700
     44 HALA         5.4220    -0.4530     1.1030 hc         1 5FO       0.064700
     45 HAM          1.9580     4.3230     1.1600 h1         1 5FO       0.042200
     46 HAMA         1.2230     4.6790    -0.4280 h1         1 5FO       0.042200
     47 HAN         -4.8680    -2.7600     0.0870 h1         1 5FO       0.037450
     48 HANA        -6.5230    -2.3630    -0.3720 h1         1 5FO       0.037450
     49 HAO         -3.4550    -1.1310    -3.0390 h1         1 5FO       0.037450
     50 HAOA        -2.9440    -1.9740    -1.5760 h1         1 5FO       0.037450
     51 HAP         -6.1240     0.0320    -0.1250 h1         1 5FO       0.076950
     52 HAPA        -5.6660    -0.7790     1.3670 h1         1 5FO       0.076950
     53 HAQ         -2.6130     0.4980    -1.3580 h1         1 5FO       0.076950
     54 HAQA        -4.2980     0.7720    -1.7520 h1         1 5FO       0.076950
     55 HNAS         0.8650    -0.7740    -2.2560 hn         1 5FO       0.328500
     56 SBD         -2.8550    -0.5860     1.3060 sy         1 5FO       1.177600
     57 CAC         -5.1710    -3.1980    -2.5900 c3         1 5FO       0.149100
@<TRIPOS>BOND
     1     1    10 1   
     2     1    29 1   
     3     1    30 1   
     4     1    31 1   
     5     2    11 1   
     6     2    32 1   
     7     2    33 1   
     8     2    34 1   
     9     3    26 2   
    10     4    56 2   
    11     5    56 2   
    12     6    23 1   
    13     7     8 ar  
    14     7    20 ar  
    15     7    38 1   
    16     8    21 ar  
    17     8    39 1   
    18     9    20 ar  
    19     9    24 ar  
    20     9    40 1   
    21    10    12 1   
    22    10    41 1   
    23    10    42 1   
    24    11    22 1   
    25    11    43 1   
    26    11    44 1   
    27    12    19 1   
    28    12    45 1   
    29    12    46 1   
    30    13    15 1   
    31    13    27 1   
    32    13    47 1   
    33    13    48 1   
    34    14    16 1   
    35    14    27 1   
    36    14    49 1   
    37    14    50 1   
    38    15    28 1   
    39    15    51 1   
    40    15    52 1   
    41    16    28 1   
    42    16    53 1   
    43    16    54 1   
    44    17    22 1   
    45    17    25 2   
    46    18    25 1   
    47    18    26 1   
    48    18    55 1   
    49    19    21 1   
    50    20    56 1   
    51    21    24 ar  
    52    22    23 2   
    53    23    26 1   
    54    24    25 1   
    55    27    57 1   
    56    28    56 1   
    57    35    57 1   
    58    36    57 1   
    59    37    57 1   
@<TRIPOS>SUBSTRUCTURE
     1 5FO         1 TEMP              0 ****  ****    0 ROOT
