@<TRIPOS>MOLECULE
5FP
   92    91     1     0     0
SMALL
No Charge or Current Charge


@<TRIPOS>ATOM
      1 C22         -9.4720    -3.1140    -0.9960 c3         1 5FP      -0.155400
      2 C23         -8.8460    -4.5340    -0.9300 c3         1 5FP      -0.053700
      3 C39         -7.6590    -4.6100     0.0600 c3         1 5FP      -0.090600
      4 C24         -9.9150    -5.5990    -0.5970 c3         1 5FP      -0.090600
      5 C21         -8.4720    -2.0560    -1.4770 c          1 5FP       0.604100
      6 O21         -8.1160    -1.9680    -2.6430 o          1 5FP      -0.610100
      7 N20         -8.0220    -1.1980    -0.4990 ns         1 5FP      -0.500900
      8 C19         -7.0240    -0.1220    -0.6970 c3         1 5FP       0.034700
      9 C18         -5.9810    -0.1980     0.4560 c          1 5FP       0.592100
     10 O18         -6.2700    -0.5590     1.5910 o          1 5FP      -0.609100
     11 C36         -7.7180     1.2760    -0.7910 c3         1 5FP      -0.068700
     12 C37         -8.7820     1.3390    -1.9160 c3         1 5FP      -0.089600
     13 C38         -6.7090     2.4410    -0.9490 c3         1 5FP      -0.089600
     14 N17         -4.6910     0.1480     0.1090 ns         1 5FP      -0.493900
     15 C16         -3.5240     0.1260     1.0220 c3         1 5FP       0.036700
     16 C15         -2.6890     1.4200     0.7860 c          1 5FP       0.592100
     17 O15         -2.6170     1.9690    -0.3070 o          1 5FP      -0.589100
     18 C33         -2.6850    -1.1800     0.8210 c3         1 5FP      -0.067700
     19 C34         -3.5370    -2.4700     0.9530 c3         1 5FP      -0.091600
     20 C35         -1.4590    -1.2590     1.7650 c3         1 5FP      -0.091600
     21 N14         -2.0550     1.9350     1.9020 ns         1 5FP      -0.508900
     22 O9           2.7120     3.5460    -0.0820 o          1 5FP      -0.603100
     23 C11          0.2470     2.9960     1.7420 c3         1 5FP       0.177300
     24 O11          0.7470     2.0890     2.7310 oh         1 5FP      -0.636000
     25 C12         -1.2900     3.2110     1.9300 c3         1 5FP       0.003700
     26 C13         -1.6580     4.0690     3.1780 c3         1 5FP       0.290000
     27 N8           2.7590     1.2750     0.0980 ns         1 5FP      -0.493900
     28 C7           4.2090     1.0700    -0.1090 c3         1 5FP       0.031700
     29 C6           4.4940    -0.3980    -0.5430 c          1 5FP       0.601100
     30 O6           3.6400    -1.2770    -0.5260 o          1 5FP      -0.612100
     31 C29          5.0040     1.4590     1.1620 c3         1 5FP      -0.109100
     32 N5           5.7870    -0.6440    -0.9540 ns         1 5FP      -0.488900
     33 O2           9.9120    -1.9380     1.3970 o          1 5FP      -0.722500
     34 O1           9.3160    -4.0100     1.3160 o          1 5FP      -0.722500
     35 C3           7.7290    -2.2180    -0.7780 c3         1 5FP       0.180300
     36 O3           8.6060    -1.1190    -1.0630 oh         1 5FP      -0.656000
     37 C4           6.3160    -1.9580    -1.3890 c3         1 5FP       0.006700
     38 C25          6.2580    -2.1290    -2.9370 c3         1 5FP       0.283000
     39 H221        -9.8480    -2.8510    -0.0000 hc         1 5FP       0.057700
     40 H222       -10.3070    -3.1370    -1.7060 hc         1 5FP       0.057700
     41 H23         -8.4550    -4.7730    -1.9280 hc         1 5FP       0.067700
     42 H391        -7.9790    -4.3460     1.0750 hc         1 5FP       0.035367
     43 H392        -7.2420    -5.6240     0.0870 hc         1 5FP       0.035367
     44 H393        -6.8520    -3.9280    -0.2350 hc         1 5FP       0.035367
     45 H241       -10.7260    -5.5790    -1.3350 hc         1 5FP       0.035367
     46 H242        -9.4770    -6.6040    -0.6050 hc         1 5FP       0.035367
     47 H243       -10.3490    -5.4210     0.3940 hc         1 5FP       0.035367
     48 H20         -8.3580    -1.3670     0.4430 hn         1 5FP       0.326500
     49 H19         -6.4800    -0.3100    -1.6330 h1         1 5FP       0.090700
     50 H36         -8.2470     1.4420     0.1570 hc         1 5FP       0.062700
     51 H371        -9.5910     0.6200    -1.7410 hc         1 5FP       0.039033
     52 H372        -9.2370     2.3350    -1.9660 hc         1 5FP       0.039033
     53 H373        -8.3310     1.1200    -2.8920 hc         1 5FP       0.039033
     54 H381        -6.0820     2.2990    -1.8390 hc         1 5FP       0.039033
     55 H382        -7.2350     3.3980    -1.0540 hc         1 5FP       0.039033
     56 H383        -6.0560     2.5270    -0.0730 hc         1 5FP       0.039033
     57 H17         -4.5400     0.4630    -0.8440 hn         1 5FP       0.334500
     58 H16         -3.8850     0.1610     2.0580 h1         1 5FP       0.088700
     59 H33         -2.2960    -1.1630    -0.2050 hc         1 5FP       0.066700
     60 H341        -4.3160    -2.5160     0.1840 hc         1 5FP       0.041033
     61 H342        -2.9110    -3.3630     0.8340 hc         1 5FP       0.041033
     62 H343        -4.0190    -2.5200     1.9370 hc         1 5FP       0.041033
     63 H351        -1.7680    -1.1930     2.8150 hc         1 5FP       0.041033
     64 H352        -0.9250    -2.2070     1.6270 hc         1 5FP       0.041033
     65 H353        -0.7450    -0.4550     1.5580 hc         1 5FP       0.041033
     66 H14         -2.2280     1.4550     2.7790 hn         1 5FP       0.332500
     67 H11          0.7410     3.9750     1.8430 h1         1 5FP       0.114700
     68 H1           0.1280     1.3310     2.7600 ho         1 5FP       0.444000
     69 H12         -1.6210     3.8130     1.0720 h1         1 5FP       0.117700
     70 HN8          2.1800     0.4550     0.2450 hn         1 5FP       0.335500
     71 H7           4.5350     1.7130    -0.9370 h1         1 5FP       0.080700
     72 H291         4.8140     2.5020     1.4380 hc         1 5FP       0.056033
     73 H292         4.7160     0.8220     2.0070 hc         1 5FP       0.056033
     74 H293         6.0830     1.3470     1.0010 hc         1 5FP       0.056033
     75 HN5          6.4350     0.1350    -0.9280 hn         1 5FP       0.327500
     76 H3           8.1280    -3.1510    -1.2070 h1         1 5FP       0.110700
     77 HO3          9.2640    -1.1090    -0.3280 ho         1 5FP       0.441000
     78 H4           5.6570    -2.7370    -0.9810 h1         1 5FP       0.110700
     79 F1          -1.3700     3.4240     4.3330 f          1 5FP      -0.111333
     80 C10          0.6150     2.4380     0.3510 c3         1 5FP      -0.202400
     81 F2          -2.9810     4.3510     3.1860 f          1 5FP      -0.111333
     82 F3          -0.9910     5.2460     3.1800 f          1 5FP      -0.111333
     83 C9           2.1220     2.4950     0.1180 c          1 5FP       0.608100
     84 F4           6.9830    -1.1830    -3.5780 f          1 5FP      -0.120000
     85 C2           7.6940    -2.3850     0.7560 c3         1 5FP      -0.254400
     86 F5           4.9840    -2.0380    -3.3850 f          1 5FP      -0.120000
     87 F6           6.7320    -3.3400    -3.3120 f          1 5FP      -0.120000
     88 C1           9.0780    -2.8160     1.2400 c          1 5FP       0.722000
     89 H101         0.1350     3.0640    -0.4090 hc         1 5FP       0.071700
     90 H102         0.2520     1.4080     0.2590 hc         1 5FP       0.071700
     91 H21          7.4300    -1.4050     1.1730 hc         1 5FP       0.030200
     92 H22          6.9540    -3.1650     0.9760 hc         1 5FP       0.030200
@<TRIPOS>BOND
     1     1     2 1   
     2     1     5 1   
     3     1    39 1   
     4     1    40 1   
     5     2     3 1   
     6     2     4 1   
     7     2    41 1   
     8     3    42 1   
     9     3    43 1   
    10     3    44 1   
    11     4    45 1   
    12     4    46 1   
    13     4    47 1   
    14     5     6 2   
    15     5     7 1   
    16     7     8 1   
    17     7    48 1   
    18     8     9 1   
    19     8    11 1   
    20     8    49 1   
    21     9    10 2   
    22     9    14 1   
    23    11    12 1   
    24    11    13 1   
    25    11    50 1   
    26    12    51 1   
    27    12    52 1   
    28    12    53 1   
    29    13    54 1   
    30    13    55 1   
    31    13    56 1   
    32    14    15 1   
    33    14    57 1   
    34    15    16 1   
    35    15    18 1   
    36    15    58 1   
    37    16    17 2   
    38    16    21 1   
    39    18    19 1   
    40    18    20 1   
    41    18    59 1   
    42    19    60 1   
    43    19    61 1   
    44    19    62 1   
    45    20    63 1   
    46    20    64 1   
    47    20    65 1   
    48    21    25 1   
    49    21    66 1   
    50    22    83 2   
    51    23    24 1   
    52    23    25 1   
    53    23    67 1   
    54    23    80 1   
    55    24    68 1   
    56    25    26 1   
    57    25    69 1   
    58    26    79 1   
    59    26    81 1   
    60    26    82 1   
    61    27    28 1   
    62    27    70 1   
    63    27    83 1   
    64    28    29 1   
    65    28    31 1   
    66    28    71 1   
    67    29    30 2   
    68    29    32 1   
    69    31    72 1   
    70    31    73 1   
    71    31    74 1   
    72    32    37 1   
    73    32    75 1   
    74    33    88 1   
    75    34    88 1   
    76    35    36 1   
    77    35    37 1   
    78    35    76 1   
    79    35    85 1   
    80    36    77 1   
    81    37    38 1   
    82    37    78 1   
    83    38    84 1   
    84    38    86 1   
    85    38    87 1   
    86    80    83 1   
    87    80    89 1   
    88    80    90 1   
    89    85    88 1   
    90    85    91 1   
    91    85    92 1   
@<TRIPOS>SUBSTRUCTURE
     1 5FP         1 TEMP              0 ****  ****    0 ROOT
