@<TRIPOS>MOLECULE
5FP
   92    91     1     0     0
SMALL
bcc


@<TRIPOS>ATOM
      1 C22         -9.2510    -3.0210     0.1090 c3         1 5FP      -0.155400
      2 C23         -8.7330    -4.3300    -0.4960 c3         1 5FP      -0.053700
      3 C39         -7.2640    -4.5590    -0.1560 c3         1 5FP      -0.090600
      4 C24         -9.5890    -5.4980    -0.0230 c3         1 5FP      -0.090600
      5 C21         -8.5250    -1.8150    -0.4440 c          1 5FP       0.671100
      6 O21         -8.4960    -1.5780    -1.6430 o          1 5FP      -0.610100
      7 N20         -7.9180    -1.0400     0.4750 ns         1 5FP      -0.567900
      8 C19         -7.1460     0.1380     0.1610 c3         1 5FP       0.034700
      9 C18         -5.7010    -0.1180     0.5830 c          1 5FP       0.659100
     10 O18         -5.4280    -0.4110     1.7360 o          1 5FP      -0.609100
     11 C36         -7.6890     1.3960     0.8580 c3         1 5FP      -0.068700
     12 C37         -9.1350     1.6570     0.4520 c3         1 5FP      -0.089600
     13 C38         -6.8170     2.6080     0.5430 c3         1 5FP      -0.089600
     14 N17         -4.7930     0.0130    -0.3970 ns         1 5FP      -0.560900
     15 C16         -3.3670    -0.1350    -0.2090 c3         1 5FP       0.036700
     16 C15         -2.7240     1.1770    -0.6490 c          1 5FP       0.659100
     17 O15         -2.8310     1.5770    -1.7940 o          1 5FP      -0.589100
     18 C33         -2.8000    -1.3250    -0.9970 c3         1 5FP      -0.067700
     19 C34         -3.4440    -2.6260    -0.5340 c3         1 5FP      -0.091600
     20 C35         -1.2820    -1.3960    -0.8540 c3         1 5FP      -0.091600
     21 N14         -2.0490     1.8390     0.3150 ns         1 5FP      -0.575900
     22 O9           2.9070     3.3090    -0.3050 o          1 5FP      -0.603100
     23 C11          0.0700     3.1190     0.4490 c3         1 5FP       0.154100
     24 O11          0.3210     2.8390     1.8010 oh         1 5FP      -0.573800
     25 C12         -1.4290     3.1210     0.1040 c3         1 5FP       0.003700
     26 C13         -2.2220     4.1840     0.8550 c3         1 5FP       0.653900
     27 N8           2.9100     1.0680    -0.0310 ns         1 5FP      -0.560900
     28 C7           4.3290     0.9250     0.1730 c3         1 5FP       0.031700
     29 C6           4.7130    -0.5010    -0.2060 c          1 5FP       0.668100
     30 O6           3.8980    -1.4060    -0.2080 o          1 5FP      -0.612100
     31 C29          4.7350     1.2040     1.6230 c3         1 5FP      -0.109100
     32 N5           6.0210    -0.6700    -0.4790 ns         1 5FP      -0.555900
     33 O2           8.0550    -2.5140     3.8730 o          1 5FP      -0.827800
     34 O1           8.9050    -3.8810     2.3320 o          1 5FP      -0.827800
     35 C3           7.7150    -2.2910     0.3000 c3         1 5FP       0.157100
     36 O3           8.7500    -1.3330     0.2720 oh         1 5FP      -0.593800
     37 C4           6.6180    -1.9560    -0.7260 c3         1 5FP       0.006700
     38 C25          7.0900    -2.0090    -2.1720 c3         1 5FP       0.646900
     39 H221        -9.1770    -3.0640     1.1990 hc         1 5FP       0.057700
     40 H222       -10.3120    -2.9040    -0.1300 hc         1 5FP       0.057700
     41 H23         -8.8300    -4.2540    -1.5830 hc         1 5FP       0.067700
     42 H391        -7.1170    -4.6160     0.9250 hc         1 5FP       0.035367
     43 H392        -6.9060    -5.4940    -0.5890 hc         1 5FP       0.035367
     44 H393        -6.6230    -3.7610    -0.5360 hc         1 5FP       0.035367
     45 H241       -10.6390    -5.3590    -0.2880 hc         1 5FP       0.035367
     46 H242        -9.2540    -6.4350    -0.4720 hc         1 5FP       0.035367
     47 H243        -9.5320    -5.6130     1.0620 hc         1 5FP       0.035367
     48 H20         -7.9700    -1.3120     1.4450 hn         1 5FP       0.326500
     49 H19         -7.2080     0.2840    -0.9190 h1         1 5FP       0.090700
     50 H36         -7.6570     1.2200     1.9380 hc         1 5FP       0.062700
     51 H371        -9.7860     0.8160     0.6900 hc         1 5FP       0.039033
     52 H372        -9.5210     2.5310     0.9790 hc         1 5FP       0.039033
     53 H373        -9.2150     1.8530    -0.6190 hc         1 5FP       0.039033
     54 H381        -6.7680     2.7880    -0.5330 hc         1 5FP       0.039033
     55 H382        -7.2320     3.5030     1.0080 hc         1 5FP       0.039033
     56 H383        -5.7950     2.5020     0.9080 hc         1 5FP       0.039033
     57 H17         -5.1140     0.2380    -1.3260 hn         1 5FP       0.334500
     58 H16         -3.1960    -0.3050     0.8560 h1         1 5FP       0.088700
     59 H33         -3.0400    -1.1710    -2.0540 hc         1 5FP       0.066700
     60 H341        -4.5250    -2.6200    -0.6750 hc         1 5FP       0.041033
     61 H342        -3.0450    -3.4670    -1.1010 hc         1 5FP       0.041033
     62 H343        -3.2420    -2.8110     0.5230 hc         1 5FP       0.041033
     63 H351        -0.9830    -1.4650     0.1950 hc         1 5FP       0.041033
     64 H352        -0.8960    -2.2780    -1.3640 hc         1 5FP       0.041033
     65 H353        -0.7840    -0.5310    -1.2940 hc         1 5FP       0.041033
     66 H14         -2.0480     1.4500     1.2460 hn         1 5FP       0.332500
     67 H11          0.4510     4.1260     0.2660 h1         1 5FP       0.114700
     68 H1           0.2740     1.8890     1.9570 ho         1 5FP       0.405000
     69 H12         -1.5170     3.3620    -0.9580 h1         1 5FP       0.117700
     70 HN8          2.3550     0.2270     0.0220 hn         1 5FP       0.335500
     71 H7           4.8490     1.6250    -0.4840 h1         1 5FP       0.080700
     72 H291         4.4610     2.2210     1.8940 hc         1 5FP       0.056033
     73 H292         4.2350     0.5170     2.3060 hc         1 5FP       0.056033
     74 H293         5.8120     1.1030     1.7590 hc         1 5FP       0.056033
     75 HN5          6.6240     0.1390    -0.4770 hn         1 5FP       0.327500
     76 H3           8.1580    -3.2490     0.0180 h1         1 5FP       0.110700
     77 HO3          8.5790    -0.6630     0.9410 ho         1 5FP       0.402000
     78 H4           5.8370    -2.7140    -0.6350 h1         1 5FP       0.110700
     79 F1          -2.3100     3.9430     2.1660 f          1 5FP      -0.232633
     80 C10          0.8120     2.1620    -0.4750 c3         1 5FP      -0.202400
     81 F2          -3.4780     4.2520     0.3930 f          1 5FP      -0.232633
     82 F3          -1.6790     5.3970     0.7080 f          1 5FP      -0.232633
     83 C9           2.3090     2.2450    -0.2570 c          1 5FP       0.675100
     84 F4           7.9840    -1.0590    -2.4700 f          1 5FP      -0.241300
     85 C2           7.1210    -2.4460     1.6880 c3         1 5FP      -0.254400
     86 F5           6.0640    -1.8470    -3.0190 f          1 5FP      -0.241300
     87 F6           7.6560    -3.1880    -2.4610 f          1 5FP      -0.241300
     88 C1           8.1290    -2.9890     2.7240 c          1 5FP       0.932600
     89 H101         0.6110     2.4250    -1.5170 hc         1 5FP       0.071700
     90 H102         0.4480     1.1410    -0.3370 hc         1 5FP       0.071700
     91 H21          6.6990    -1.4960     2.0310 hc         1 5FP       0.030200
     92 H22          6.2810    -3.1480     1.6390 hc         1 5FP       0.030200
@<TRIPOS>BOND
     1     1     2 1   
     2     1     5 1   
     3     1    39 1   
     4     1    40 1   
     5     2     3 1   
     6     2     4 1   
     7     2    41 1   
     8     3    42 1   
     9     3    43 1   
    10     3    44 1   
    11     4    45 1   
    12     4    46 1   
    13     4    47 1   
    14     5     6 2   
    15     5     7 1   
    16     7     8 1   
    17     7    48 1   
    18     8     9 1   
    19     8    11 1   
    20     8    49 1   
    21     9    10 2   
    22     9    14 1   
    23    11    12 1   
    24    11    13 1   
    25    11    50 1   
    26    12    51 1   
    27    12    52 1   
    28    12    53 1   
    29    13    54 1   
    30    13    55 1   
    31    13    56 1   
    32    14    15 1   
    33    14    57 1   
    34    15    16 1   
    35    15    18 1   
    36    15    58 1   
    37    16    17 2   
    38    16    21 1   
    39    18    19 1   
    40    18    20 1   
    41    18    59 1   
    42    19    60 1   
    43    19    61 1   
    44    19    62 1   
    45    20    63 1   
    46    20    64 1   
    47    20    65 1   
    48    21    25 1   
    49    21    66 1   
    50    22    83 2   
    51    23    24 1   
    52    23    25 1   
    53    23    67 1   
    54    23    80 1   
    55    24    68 1   
    56    25    26 1   
    57    25    69 1   
    58    26    79 1   
    59    26    81 1   
    60    26    82 1   
    61    27    28 1   
    62    27    70 1   
    63    27    83 1   
    64    28    29 1   
    65    28    31 1   
    66    28    71 1   
    67    29    30 2   
    68    29    32 1   
    69    31    72 1   
    70    31    73 1   
    71    31    74 1   
    72    32    37 1   
    73    32    75 1   
    74    33    88 1   
    75    34    88 1   
    76    35    36 1   
    77    35    37 1   
    78    35    76 1   
    79    35    85 1   
    80    36    77 1   
    81    37    38 1   
    82    37    78 1   
    83    38    84 1   
    84    38    86 1   
    85    38    87 1   
    86    80    83 1   
    87    80    89 1   
    88    80    90 1   
    89    85    88 1   
    90    85    91 1   
    91    85    92 1   
@<TRIPOS>SUBSTRUCTURE
     1 5FP         1 TEMP              0 ****  ****    0 ROOT
