@<TRIPOS>MOLECULE
5FQ
   29    28     1     0     0
SMALL
bcc


@<TRIPOS>ATOM
      1 C01          5.5280     0.0490     0.3080 c3         1 5FQ      -0.089100
      2 C02          4.1660     0.6720     0.0370 c3         1 5FQ      -0.074400
      3 C03          3.0420    -0.3560     0.0080 c3         1 5FQ      -0.074400
      4 C04          1.6720     0.2620    -0.2380 c3         1 5FQ      -0.097400
      5 C05          0.5750    -0.7920    -0.3020 c3         1 5FQ       0.098000
      6 N06         -0.7230    -0.2160    -0.5770 ns         1 5FQ      -0.569900
      7 C07         -1.8040    -0.3480     0.2040 c          1 5FQ       0.678100
      8 O08         -1.8270    -1.0120     1.2330 o          1 5FQ      -0.607100
      9 C09         -3.0350     0.4270    -0.2490 c3         1 5FQ       0.081500
     10 C10         -3.1970     1.6630     0.6390 c3         1 5FQ      -0.128100
     11 N11         -4.1690    -0.4830    -0.2360 n8         1 5FQ      -0.871800
     12 H1           6.3190     0.8000     0.3150 hc         1 5FQ       0.032700
     13 H2           5.5440    -0.4560     1.2760 hc         1 5FQ       0.032700
     14 H3           5.7830    -0.6910    -0.4530 hc         1 5FQ       0.032700
     15 H4           3.9510     1.4240     0.8020 hc         1 5FQ       0.036700
     16 H5           4.1890     1.2090    -0.9170 hc         1 5FQ       0.036700
     17 H6           3.2510    -1.0980    -0.7700 hc         1 5FQ       0.041200
     18 H7           3.0290    -0.9060     0.9560 hc         1 5FQ       0.041200
     19 H8           1.4400     0.9800     0.5540 hc         1 5FQ       0.041700
     20 H9           1.6890     0.8260    -1.1770 hc         1 5FQ       0.041700
     21 H10          0.8140    -1.5280    -1.0760 h1         1 5FQ       0.058200
     22 H11          0.5150    -1.3340     0.6410 h1         1 5FQ       0.058200
     23 H12         -0.8110     0.3280    -1.4200 hn         1 5FQ       0.308500
     24 H13         -2.8950     0.7620    -1.2810 h1         1 5FQ       0.058700
     25 H14         -2.3240     2.3150     0.5890 hc         1 5FQ       0.045033
     26 H15         -4.0640     2.2420     0.3180 hc         1 5FQ       0.045033
     27 H16         -3.3480     1.3730     1.6800 hc         1 5FQ       0.045033
     28 H17         -4.3290    -0.8000     0.7130 hn         1 5FQ       0.349300
     29 H18         -5.0020     0.0250    -0.5030 hn         1 5FQ       0.349300
@<TRIPOS>BOND
     1     1     2 1   
     2     1    12 1   
     3     1    13 1   
     4     1    14 1   
     5     2     3 1   
     6     2    15 1   
     7     2    16 1   
     8     3     4 1   
     9     3    17 1   
    10     3    18 1   
    11     4     5 1   
    12     4    19 1   
    13     4    20 1   
    14     5     6 1   
    15     5    21 1   
    16     5    22 1   
    17     6     7 1   
    18     6    23 1   
    19     7     8 2   
    20     7     9 1   
    21     9    10 1   
    22     9    11 1   
    23     9    24 1   
    24    10    25 1   
    25    10    26 1   
    26    10    27 1   
    27    11    28 1   
    28    11    29 1   
@<TRIPOS>SUBSTRUCTURE
     1 5FQ         1 TEMP              0 ****  ****    0 ROOT
