@<TRIPOS>MOLECULE
5FQ
   29    28     1     0     0
SMALL
No Charge or Current Charge


@<TRIPOS>ATOM
      1 C01          5.5060     0.1430     0.4560 c3         1 5FQ      -0.089100
      2 C02          4.0640     0.6710     0.3260 c3         1 5FQ      -0.074400
      3 C03          3.0580    -0.4180    -0.1050 c3         1 5FQ      -0.074400
      4 C04          1.6130     0.1120    -0.2350 c3         1 5FQ      -0.097400
      5 C05          0.6110    -0.9780    -0.6670 c3         1 5FQ       0.098000
      6 N06         -0.7490    -0.4520    -0.8050 ns         1 5FQ      -0.502900
      7 C07         -1.6120    -0.2070     0.2460 c          1 5FQ       0.611100
      8 O08         -1.3080    -0.4620     1.4070 o          1 5FQ      -0.607100
      9 C09         -3.0110     0.3940    -0.1590 c3         1 5FQ       0.081500
     10 C10         -3.1900     1.8190     0.4050 c3         1 5FQ      -0.128100
     11 N11         -4.2050    -0.4350     0.2090 n8         1 5FQ      -0.982200
     12 H1           6.1820     0.9500     0.7630 hc         1 5FQ       0.032700
     13 H2           5.5610    -0.6550     1.2050 hc         1 5FQ       0.032700
     14 H3           5.8610    -0.2550    -0.5030 hc         1 5FQ       0.032700
     15 H4           3.7520     1.0940     1.2890 hc         1 5FQ       0.036700
     16 H5           4.0490     1.4910    -0.4030 hc         1 5FQ       0.036700
     17 H6           3.3750    -0.8400    -1.0680 hc         1 5FQ       0.041200
     18 H7           3.0770    -1.2360     0.6250 hc         1 5FQ       0.041200
     19 H8           1.2980     0.5350     0.7270 hc         1 5FQ       0.041700
     20 H9           1.5920     0.9290    -0.9670 hc         1 5FQ       0.041700
     21 H10          0.9220    -1.3980    -1.6330 h1         1 5FQ       0.058200
     22 H11          0.6090    -1.7930     0.0700 h1         1 5FQ       0.058200
     23 H12         -1.0890    -0.2300    -1.7330 hn         1 5FQ       0.308500
     24 H13         -3.0100     0.4800    -1.2550 h1         1 5FQ       0.058700
     25 H14         -2.3650     2.4640     0.0780 hc         1 5FQ       0.045033
     26 H15         -4.1270     2.2670     0.0520 hc         1 5FQ       0.045033
     27 H16         -3.2000     1.8110     1.5020 hc         1 5FQ       0.045033
     28 H17         -4.2240    -0.5590     1.2300 hn         1 5FQ       0.404500
     29 H18         -5.0630     0.0960     0.0150 hn         1 5FQ       0.404500
@<TRIPOS>BOND
     1     1     2 1   
     2     1    12 1   
     3     1    13 1   
     4     1    14 1   
     5     2     3 1   
     6     2    15 1   
     7     2    16 1   
     8     3     4 1   
     9     3    17 1   
    10     3    18 1   
    11     4     5 1   
    12     4    19 1   
    13     4    20 1   
    14     5     6 1   
    15     5    21 1   
    16     5    22 1   
    17     6     7 1   
    18     6    23 1   
    19     7     8 2   
    20     7     9 1   
    21     9    10 1   
    22     9    11 1   
    23     9    24 1   
    24    10    25 1   
    25    10    26 1   
    26    10    27 1   
    27    11    28 1   
    28    11    29 1   
@<TRIPOS>SUBSTRUCTURE
     1 5FQ         1 TEMP              0 ****  ****    0 ROOT
