@<TRIPOS>MOLECULE
5FR
   75    79     1     0     0
SMALL
abcg2


@<TRIPOS>ATOM
      1 C26          3.2870     5.1080     0.9200 c3         1 5FR      -0.108400
      2 C17          3.2460     3.6250     0.8620 cc         1 5FR       0.402900
      3 C12          2.0950     2.7880     0.7310 ca         1 5FR      -0.334900
      4 C13          0.7290     2.9740     0.5850 ca         1 5FR       0.463900
      5 C11          2.5900     1.4730     0.7300 ca         1 5FR       0.051800
      6 C10          1.7340     0.3950     0.5660 ca         1 5FR      -0.265000
      7 C9           0.3800     0.7100     0.4260 ca         1 5FR       0.649900
      8 C61          5.6330    -1.6140     1.4350 ca         1 5FR       0.133000
      9 C68          4.6580    -0.6320     1.4850 ca         1 5FR      -0.130000
     10 C62          6.8500    -1.4070     0.8080 ca         1 5FR      -0.112000
     11 C63          7.1090    -0.1770     0.2080 ca         1 5FR      -0.059300
     12 C69          8.4050     0.0540    -0.5150 c3         1 5FR      -0.022100
     13 C70          8.2760    -0.3180    -1.9910 c3         1 5FR      -0.161400
     14 C71          9.5490    -0.0650    -2.7740 c          1 5FR       0.603100
     15 O73         10.3490     0.8030    -2.4550 o          1 5FR      -0.604100
     16 N72          9.7130    -0.8490    -3.8490 nt         1 5FR      -0.611000
     17 C66          6.1340     0.8120     0.2310 ca         1 5FR      -0.103000
     18 C67          4.9150     0.5820     0.8590 ca         1 5FR       0.048800
     19 N15          3.9390     1.5890     0.8660 na         1 5FR       0.154800
     20 N16          4.3190     2.8930     0.9330 nd         1 5FR      -0.514100
     21 N14         -0.1030     1.9610     0.4430 nb         1 5FR      -0.755000
     22 N8          -0.4960    -0.3350     0.2670 nu         1 5FR      -0.929900
     23 C57         -1.8570    -0.3680     0.0380 ca         1 5FR       0.319000
     24 C56         -2.7000     0.7340    -0.0800 ca         1 5FR      -0.131000
     25 C55         -4.0590     0.5690    -0.3130 ca         1 5FR      -0.086000
     26 C52         -2.4310    -1.6580    -0.0960 ca         1 5FR       0.066100
     27 O53         -1.5610    -2.6820     0.0260 os         1 5FR      -0.371100
     28 C54         -2.0480    -4.0070    -0.0590 c3         1 5FR       0.153900
     29 C51         -3.7800    -1.8080    -0.3370 ca         1 5FR      -0.115000
     30 C50         -4.6190    -0.6930    -0.4350 ca         1 5FR      -0.152600
     31 C41         -6.0660    -0.9390    -0.6990 c          1 5FR       0.618700
     32 O40         -6.4550    -2.0160    -1.1360 o          1 5FR      -0.613100
     33 N42         -6.9030     0.0800    -0.4340 ns         1 5FR      -0.498900
     34 C43         -8.3400     0.0010    -0.6050 c6         1 5FR       0.108700
     35 C44         -8.9030     1.3660    -0.9770 c6         1 5FR      -0.091900
     36 C49        -10.4170     1.3040    -1.0990 c6         1 5FR       0.167300
     37 N47        -11.0270     0.8170     0.1240 n3         1 5FR      -0.717600
     38 C48        -12.4700     0.8500     0.0380 c3         1 5FR       0.152100
     39 C46        -10.5500    -0.5130     0.4540 c6         1 5FR       0.167300
     40 C45         -9.0410    -0.5250     0.6450 c6         1 5FR      -0.091900
     41 H126         2.6820     5.4810     1.7470 hc         1 5FR       0.055367
     42 H226         4.3060     5.4640     1.0500 hc         1 5FR       0.055367
     43 H326         2.8850     5.5430     0.0030 hc         1 5FR       0.055367
     44 H13          0.2930     3.9670     0.5800 h4         1 5FR       0.025100
     45 H10          2.0720    -0.6310     0.5290 ha         1 5FR       0.136000
     46 H68          3.7380    -0.8020     2.0270 ha         1 5FR       0.142000
     47 H62          7.5950    -2.1920     0.7890 ha         1 5FR       0.132000
     48 H169         8.6990     1.1000    -0.4230 hc         1 5FR       0.068700
     49 H269         9.1960    -0.5410    -0.0550 hc         1 5FR       0.068700
     50 H170         7.9700    -1.3620    -2.0930 hc         1 5FR       0.059700
     51 H270         7.4810     0.2770    -2.4520 hc         1 5FR       0.059700
     52 H172         9.0430    -1.5580    -4.0950 hn         1 5FR       0.314000
     53 H272        10.4990    -0.7200    -4.4640 hn         1 5FR       0.314000
     54 H66          6.3210     1.7670    -0.2420 ha         1 5FR       0.143000
     55 HN8         -0.0640    -1.2460     0.3060 hn         1 5FR       0.515000
     56 H56         -2.2930     1.7270     0.0100 ha         1 5FR       0.155000
     57 H55         -4.6580     1.4650    -0.4200 ha         1 5FR       0.112000
     58 H154        -2.7940    -4.2130     0.7120 h1         1 5FR       0.044700
     59 H254        -2.4830    -4.2170    -1.0390 h1         1 5FR       0.044700
     60 H354        -1.1920    -4.6590     0.0940 h1         1 5FR       0.044700
     61 H51         -4.2080    -2.7940    -0.4510 ha         1 5FR       0.141000
     62 HN42        -6.5540     0.8800     0.0680 hn         1 5FR       0.312500
     63 H43         -8.5340    -0.6900    -1.4290 h1         1 5FR       0.077700
     64 H144        -8.6340     2.0980    -0.2070 hc         1 5FR       0.052700
     65 H244        -8.4720     1.7100    -1.9190 hc         1 5FR       0.052700
     66 H149       -10.8050     2.3030    -1.3100 h1         1 5FR       0.033700
     67 H249       -10.6890     0.6710    -1.9640 h1         1 5FR       0.033700
     68 H148       -12.8720     0.2000    -0.7550 h1         1 5FR       0.030700
     69 H248       -12.9100     0.5310     0.9840 h1         1 5FR       0.030700
     70 H348       -12.8120     1.8670    -0.1620 h1         1 5FR       0.030700
     71 H146       -11.0410    -0.8440     1.3710 h1         1 5FR       0.033700
     72 H246       -10.8210    -1.2440    -0.3310 h1         1 5FR       0.033700
     73 H145        -8.7080    -1.5410     0.8640 hc         1 5FR       0.052700
     74 H245        -8.7730     0.1010     1.5020 hc         1 5FR       0.052700
     75 CL           5.3260    -3.1330     2.2080 cl         1 5FR      -0.196000
@<TRIPOS>BOND
     1     1     2 1   
     2     1    41 1   
     3     1    42 1   
     4     1    43 1   
     5     2     3 1   
     6     2    20 2   
     7     3     4 ar  
     8     3     5 ar  
     9     4    21 ar  
    10     4    44 1   
    11     5     6 ar  
    12     5    19 1   
    13     6     7 ar  
    14     6    45 1   
    15     7    21 ar  
    16     7    22 1   
    17     8     9 ar  
    18     8    10 ar  
    19     8    75 1   
    20     9    18 ar  
    21     9    46 1   
    22    10    11 ar  
    23    10    47 1   
    24    11    12 1   
    25    11    17 ar  
    26    12    13 1   
    27    12    48 1   
    28    12    49 1   
    29    13    14 1   
    30    13    50 1   
    31    13    51 1   
    32    14    15 2   
    33    14    16 1   
    34    16    52 1   
    35    16    53 1   
    36    17    18 ar  
    37    17    54 1   
    38    18    19 1   
    39    19    20 1   
    40    22    23 1   
    41    22    55 1   
    42    23    24 ar  
    43    23    26 ar  
    44    24    25 ar  
    45    24    56 1   
    46    25    30 ar  
    47    25    57 1   
    48    26    27 1   
    49    26    29 ar  
    50    27    28 1   
    51    28    58 1   
    52    28    59 1   
    53    28    60 1   
    54    29    30 ar  
    55    29    61 1   
    56    30    31 1   
    57    31    32 2   
    58    31    33 1   
    59    33    34 1   
    60    33    62 1   
    61    34    35 1   
    62    34    40 1   
    63    34    63 1   
    64    35    36 1   
    65    35    64 1   
    66    35    65 1   
    67    36    37 1   
    68    36    66 1   
    69    36    67 1   
    70    37    38 1   
    71    37    39 1   
    72    38    68 1   
    73    38    69 1   
    74    38    70 1   
    75    39    40 1   
    76    39    71 1   
    77    39    72 1   
    78    40    73 1   
    79    40    74 1   
@<TRIPOS>SUBSTRUCTURE
     1 5FR         1 TEMP              0 ****  ****    0 ROOT
