@<TRIPOS>MOLECULE
5FR
   75    79     1     0     0
SMALL
No Charge or Current Charge


@<TRIPOS>ATOM
      1 C26          3.0410     4.9370     2.4290 c3         1 5FR      -0.108400
      2 C17          3.2100     3.5280     1.9450 cc         1 5FR       0.402900
      3 C12          2.1370     2.6240     1.6310 ca         1 5FR      -0.334900
      4 C13          0.7500     2.7550     1.6740 ca         1 5FR       0.463900
      5 C11          2.7200     1.4750     1.2340 ca         1 5FR       0.051800
      6 C10          1.9350     0.3880     0.8480 ca         1 5FR      -0.265000
      7 C9           0.5450     0.5810     0.8990 ca         1 5FR       0.649900
      8 C61          6.0490    -1.4630     1.3570 ca         1 5FR       0.133000
      9 C68          5.0900    -0.4960     1.6940 ca         1 5FR      -0.130000
     10 C62          6.9600    -1.2240     0.3160 ca         1 5FR      -0.112000
     11 C63          6.9190    -0.0100    -0.3970 ca         1 5FR      -0.059300
     12 C69          7.9000     0.2510    -1.5310 c3         1 5FR      -0.022100
     13 C70          7.3080    -0.1310    -2.9060 c3         1 5FR      -0.161400
     14 C71          8.3090     0.1290    -4.0330 c          1 5FR       0.603100
     15 O73          8.4740     1.2240    -4.5410 o          1 5FR      -0.604100
     16 N72          9.0230    -0.9360    -4.4540 nt         1 5FR      -0.611000
     17 C66          5.9530     0.9570    -0.0570 ca         1 5FR      -0.103000
     18 C67          5.0350     0.7190     0.9850 ca         1 5FR       0.048800
     19 N15          4.0800     1.6810     1.3110 na         1 5FR       0.154800
     20 N16          4.4120     2.9630     1.7500 nd         1 5FR      -0.514100
     21 N14         -0.0450     1.7190     1.3100 nb         1 5FR      -0.755000
     22 N8          -0.2980    -0.4530     0.5690 nu         1 5FR      -0.929900
     23 C57         -1.6800    -0.6000     0.3690 ca         1 5FR       0.319000
     24 C56         -2.5010     0.4690    -0.0330 ca         1 5FR      -0.131000
     25 C55         -3.8770     0.2850    -0.2440 ca         1 5FR      -0.086000
     26 C52         -2.2560    -1.8860     0.5280 ca         1 5FR       0.066100
     27 O53         -1.4270    -2.9440     0.8900 os         1 5FR      -0.371100
     28 C54         -1.9170    -4.2850     1.0790 c3         1 5FR       0.153900
     29 C51         -3.6430    -2.0680     0.3160 ca         1 5FR      -0.115000
     30 C50         -4.4710    -0.9860    -0.0660 ca         1 5FR      -0.152600
     31 C41         -5.9550    -1.2220    -0.2830 c          1 5FR       0.618700
     32 O40         -6.4680    -2.3250    -0.1420 o          1 5FR      -0.613100
     33 N42         -6.7080    -0.1290    -0.6510 ns         1 5FR      -0.498900
     34 C43         -8.1570    -0.1270    -0.8890 c6         1 5FR       0.108700
     35 C44         -8.5520     1.0560    -1.8020 c6         1 5FR      -0.091900
     36 C49        -10.0840     1.1080    -2.0090 c6         1 5FR       0.167300
     37 N47        -10.8020     1.2000    -0.7090 n3         1 5FR      -0.717600
     38 C48        -12.2630     1.3560    -0.8840 c3         1 5FR       0.152100
     39 C46        -10.4590     0.0640     0.1890 c6         1 5FR       0.167300
     40 C45         -8.9350    -0.0120     0.4430 c6         1 5FR      -0.091900
     41 H126         2.4850     4.9560     3.3730 hc         1 5FR       0.055367
     42 H226         4.0110     5.4190     2.5970 hc         1 5FR       0.055367
     43 H326         2.4890     5.5340     1.6940 hc         1 5FR       0.055367
     44 H13          0.2660     3.6760     1.9970 h4         1 5FR       0.025100
     45 H10          2.3710    -0.5490     0.5190 ha         1 5FR       0.136000
     46 H68          4.3910    -0.6900     2.5040 ha         1 5FR       0.142000
     47 H62          7.6950    -1.9840     0.0630 ha         1 5FR       0.132000
     48 H169         8.1860     1.3110    -1.5420 hc         1 5FR       0.068700
     49 H269         8.8280    -0.3110    -1.3660 hc         1 5FR       0.068700
     50 H170         7.0570    -1.1980    -2.8720 hc         1 5FR       0.059700
     51 H270         6.4060     0.4670    -3.0800 hc         1 5FR       0.059700
     52 H172         8.8820    -1.8400    -4.0290 hn         1 5FR       0.314000
     53 H272         9.6970    -0.8160    -5.1960 hn         1 5FR       0.314000
     54 H66          5.9100     1.8970    -0.6050 ha         1 5FR       0.143000
     55 HN8          0.1730    -1.3520     0.6150 hn         1 5FR       0.515000
     56 H56         -2.0740     1.4520    -0.2020 ha         1 5FR       0.155000
     57 H55         -4.4660     1.1460    -0.5510 ha         1 5FR       0.112000
     58 H154        -2.6680    -4.3180     1.8780 h1         1 5FR       0.044700
     59 H254        -2.3660    -4.6710     0.1550 h1         1 5FR       0.044700
     60 H354        -1.0940    -4.9530     1.3610 h1         1 5FR       0.044700
     61 H51         -4.0930    -3.0480     0.4440 ha         1 5FR       0.141000
     62 HN42        -6.2120     0.7460    -0.7450 hn         1 5FR       0.312500
     63 H43         -8.4350    -1.0680    -1.3890 h1         1 5FR       0.077700
     64 H144        -8.2120     2.0040    -1.3630 hc         1 5FR       0.052700
     65 H244        -8.0530     0.9620    -2.7760 hc         1 5FR       0.052700
     66 H149       -10.3250     1.9760    -2.6390 h1         1 5FR       0.033700
     67 H249       -10.4030     0.2100    -2.5590 h1         1 5FR       0.033700
     68 H148       -12.6960     0.4750    -1.3760 h1         1 5FR       0.030700
     69 H248       -12.7580     1.4860     0.0880 h1         1 5FR       0.030700
     70 H348       -12.4870     2.2390    -1.4980 h1         1 5FR       0.030700
     71 H146       -10.9720     0.1740     1.1560 h1         1 5FR       0.033700
     72 H246       -10.7980    -0.8860    -0.2510 h1         1 5FR       0.033700
     73 H145        -8.7150    -0.8750     1.0850 hc         1 5FR       0.052700
     74 H245        -8.6110     0.8810     0.9940 hc         1 5FR       0.052700
     75 Cl           6.1080    -2.9810     2.2420 cl         1 5FR      -0.196000
@<TRIPOS>BOND
     1     1     2 1   
     2     1    41 1   
     3     1    42 1   
     4     1    43 1   
     5     2     3 1   
     6     2    20 2   
     7     3     4 ar  
     8     3     5 ar  
     9     4    21 ar  
    10     4    44 1   
    11     5     6 ar  
    12     5    19 1   
    13     6     7 ar  
    14     6    45 1   
    15     7    21 ar  
    16     7    22 1   
    17     8     9 ar  
    18     8    10 ar  
    19     8    75 1   
    20     9    18 ar  
    21     9    46 1   
    22    10    11 ar  
    23    10    47 1   
    24    11    12 1   
    25    11    17 ar  
    26    12    13 1   
    27    12    48 1   
    28    12    49 1   
    29    13    14 1   
    30    13    50 1   
    31    13    51 1   
    32    14    15 2   
    33    14    16 1   
    34    16    52 1   
    35    16    53 1   
    36    17    18 ar  
    37    17    54 1   
    38    18    19 1   
    39    19    20 1   
    40    22    23 1   
    41    22    55 1   
    42    23    24 ar  
    43    23    26 ar  
    44    24    25 ar  
    45    24    56 1   
    46    25    30 ar  
    47    25    57 1   
    48    26    27 1   
    49    26    29 ar  
    50    27    28 1   
    51    28    58 1   
    52    28    59 1   
    53    28    60 1   
    54    29    30 ar  
    55    29    61 1   
    56    30    31 1   
    57    31    32 2   
    58    31    33 1   
    59    33    34 1   
    60    33    62 1   
    61    34    35 1   
    62    34    40 1   
    63    34    63 1   
    64    35    36 1   
    65    35    64 1   
    66    35    65 1   
    67    36    37 1   
    68    36    66 1   
    69    36    67 1   
    70    37    38 1   
    71    37    39 1   
    72    38    68 1   
    73    38    69 1   
    74    38    70 1   
    75    39    40 1   
    76    39    71 1   
    77    39    72 1   
    78    40    73 1   
    79    40    74 1   
@<TRIPOS>SUBSTRUCTURE
     1 5FR         1 TEMP              0 ****  ****    0 ROOT
