@<TRIPOS>MOLECULE
5FS
   39    41     1     0     0
SMALL
No Charge or Current Charge


@<TRIPOS>ATOM
      1 O01          3.8520    -3.7040    -0.1150 oh         1 5FS      -0.527600
      2 C02         -0.9880    -0.7440     0.0430 ce         1 5FS       0.094800
      3 C03         -0.9910     0.7370    -0.0380 ce         1 5FS       0.094800
      4 C04         -2.2560     1.2280    -0.0960 cf         1 5FS      -0.360600
      5 C05          0.2810    -1.5320     0.0290 ca         1 5FS      -0.120300
      6 C06          0.2700     1.5340     0.0460 ca         1 5FS      -0.120300
      7 C07          0.5450    -2.5340     0.9950 ca         1 5FS       0.000200
      8 C08          1.7520    -3.2570     0.9310 ca         1 5FS      -0.189000
      9 C09          2.6910    -2.9930    -0.0740 ca         1 5FS       0.162600
     10 C10          2.4350    -2.0010    -1.0300 ca         1 5FS      -0.184500
     11 C12          0.5780     2.5390    -0.9050 ca         1 5FS       0.000200
     12 C13          1.7750     3.2720    -0.7760 ca         1 5FS      -0.189000
     13 C14          2.6600     3.0120     0.2800 ca         1 5FS       0.162600
     14 C15          2.3580     2.0190     1.2180 ca         1 5FS      -0.184500
     15 C16          1.1690     1.2840     1.1040 ca         1 5FS      -0.035000
     16 C18         -0.3400     2.8290    -2.0880 c3         1 5FS      -0.055800
     17 C01         -2.2510    -1.2440     0.0340 cf         1 5FS      -0.360600
     18 S01         -3.4770    -0.0130    -0.0640 sy         1 5FS       0.971200
     19 C11          1.2340    -1.2760    -0.9800 ca         1 5FS      -0.035000
     20 O02          3.8160     3.7220     0.4000 oh         1 5FS      -0.527600
     21 O03         -4.2240     0.0530     1.1970 o          1 5FS      -0.509500
     22 O04         -4.1540    -0.0840    -1.3640 o          1 5FS      -0.509500
     23 H1           4.3830    -3.3870    -0.8770 ho         1 5FS       0.469000
     24 H2          -2.5770     2.2690    -0.1140 h4         1 5FS       0.245000
     25 H3           1.9670    -4.0260     1.6680 ha         1 5FS       0.124000
     26 H4           3.1560    -1.7890    -1.8160 ha         1 5FS       0.127500
     27 H5           2.0150     4.0420    -1.5060 ha         1 5FS       0.124000
     28 H6           3.0440     1.8190     2.0370 ha         1 5FS       0.127500
     29 H7           0.9400     0.5210     1.8450 ha         1 5FS       0.123000
     30 H8          -0.8540    -1.9110     2.5470 hc         1 5FS       0.050367
     31 H9          -1.2620    -3.4570     1.7770 hc         1 5FS       0.050367
     32 H10          0.0560    -3.3650     2.9510 hc         1 5FS       0.050367
     33 H11         -1.1900     3.4500    -1.7830 hc         1 5FS       0.050367
     34 H12          0.1880     3.3640    -2.8860 hc         1 5FS       0.050367
     35 H13         -0.7330     1.9050    -2.5280 hc         1 5FS       0.050367
     36 H14         -2.5650    -2.2880     0.0350 h4         1 5FS       0.245000
     37 H15          1.0390    -0.5150    -1.7330 ha         1 5FS       0.123000
     38 H16          3.8600     4.3690    -0.3360 ho         1 5FS       0.469000
     39 C17         -0.4330    -2.8320     2.1270 c3         1 5FS      -0.055800
@<TRIPOS>BOND
     1     1     9 1   
     2     1    23 1   
     3     2     3 1   
     4     2     5 1   
     5     2    17 2   
     6     3     4 2   
     7     3     6 1   
     8     4    18 1   
     9     4    24 1   
    10     5     7 ar  
    11     5    19 ar  
    12     6    11 ar  
    13     6    15 ar  
    14     7     8 ar  
    15     7    39 1   
    16     8     9 ar  
    17     8    25 1   
    18     9    10 ar  
    19    10    19 ar  
    20    10    26 1   
    21    11    12 ar  
    22    11    16 1   
    23    12    13 ar  
    24    12    27 1   
    25    13    14 ar  
    26    13    20 1   
    27    14    15 ar  
    28    14    28 1   
    29    15    29 1   
    30    16    33 1   
    31    16    34 1   
    32    16    35 1   
    33    17    18 1   
    34    17    36 1   
    35    18    21 2   
    36    18    22 2   
    37    19    37 1   
    38    20    38 1   
    39    30    39 1   
    40    31    39 1   
    41    32    39 1   
@<TRIPOS>SUBSTRUCTURE
     1 5FS         1 TEMP              0 ****  ****    0 ROOT
