@<TRIPOS>MOLECULE
5FS
   39    41     1     0     0
SMALL
bcc


@<TRIPOS>ATOM
      1 O01          3.7990    -3.6910    -0.0880 oh         1 5FS      -0.488600
      2 C02         -0.9740    -0.7580     0.0440 ce         1 5FS       0.094800
      3 C03         -0.9770     0.7480    -0.0550 ce         1 5FS       0.094800
      4 C04         -2.2040     1.2620    -0.1410 cf         1 5FS      -0.310600
      5 C05          0.2720    -1.5320     0.0430 ca         1 5FS      -0.120300
      6 C06          0.2610     1.5330     0.0050 ca         1 5FS      -0.120300
      7 C07          0.5390    -2.5270     0.9980 ca         1 5FS       0.000200
      8 C08          1.7390    -3.2230     0.9210 ca         1 5FS      -0.207000
      9 C09          2.6660    -2.9670    -0.0850 ca         1 5FS       0.162600
     10 C10          2.3980    -1.9830    -1.0320 ca         1 5FS      -0.202500
     11 C12          0.5620     2.5360    -0.9270 ca         1 5FS       0.000200
     12 C13          1.7480     3.2480    -0.7830 ca         1 5FS      -0.207000
     13 C14          2.6240     3.0000     0.2690 ca         1 5FS       0.162600
     14 C15          2.3230     2.0030     1.1940 ca         1 5FS      -0.202500
     15 C16          1.1590     1.2780     1.0450 ca         1 5FS      -0.053000
     16 C18         -0.3340     2.8580    -2.0890 c3         1 5FS      -0.055800
     17 C01         -2.2000    -1.2810     0.0810 cf         1 5FS      -0.310600
     18 S01         -3.4160    -0.0130    -0.0510 sy         1 5FS       1.112800
     19 C11          1.2160    -1.2740    -0.9500 ca         1 5FS      -0.053000
     20 O02          3.7690     3.6830     0.4330 oh         1 5FS      -0.488600
     21 O03         -4.1940     0.1330     1.1760 o          1 5FS      -0.580300
     22 O04         -4.1570    -0.1630    -1.3000 o          1 5FS      -0.580300
     23 H1           4.3730    -3.4160    -0.8110 ho         1 5FS       0.430000
     24 H2          -2.5090     2.2980    -0.1650 h4         1 5FS       0.195000
     25 H3           1.9630    -3.9790     1.6640 ha         1 5FS       0.142000
     26 H4           3.1070    -1.7670    -1.8230 ha         1 5FS       0.145500
     27 H5           1.9920     4.0120    -1.5150 ha         1 5FS       0.142000
     28 H6           2.9990     1.7980     2.0140 ha         1 5FS       0.145500
     29 H7           0.9370     0.5050     1.7690 ha         1 5FS       0.141000
     30 H8          -0.8600    -1.9550     2.5460 hc         1 5FS       0.050367
     31 H9          -1.2290    -3.4860     1.7760 hc         1 5FS       0.050367
     32 H10          0.1040    -3.3860     2.9130 hc         1 5FS       0.050367
     33 H11         -1.1620     3.5010    -1.7880 hc         1 5FS       0.050367
     34 H12          0.2190     3.3870    -2.8630 hc         1 5FS       0.050367
     35 H13         -0.7680     1.9630    -2.5340 hc         1 5FS       0.050367
     36 H14         -2.4980    -2.3190     0.0970 h4         1 5FS       0.195000
     37 H15          1.0220    -0.5080    -1.6910 ha         1 5FS       0.141000
     38 H16          3.8700     4.3490    -0.2570 ho         1 5FS       0.430000
     39 C17         -0.4100    -2.8500     2.1160 c3         1 5FS      -0.055800
@<TRIPOS>BOND
     1     1     9 1   
     2     1    23 1   
     3     2     3 1   
     4     2     5 1   
     5     2    17 2   
     6     3     4 2   
     7     3     6 1   
     8     4    18 1   
     9     4    24 1   
    10     5     7 ar  
    11     5    19 ar  
    12     6    11 ar  
    13     6    15 ar  
    14     7     8 ar  
    15     7    39 1   
    16     8     9 ar  
    17     8    25 1   
    18     9    10 ar  
    19    10    19 ar  
    20    10    26 1   
    21    11    12 ar  
    22    11    16 1   
    23    12    13 ar  
    24    12    27 1   
    25    13    14 ar  
    26    13    20 1   
    27    14    15 ar  
    28    14    28 1   
    29    15    29 1   
    30    16    33 1   
    31    16    34 1   
    32    16    35 1   
    33    17    18 1   
    34    17    36 1   
    35    18    21 2   
    36    18    22 2   
    37    19    37 1   
    38    20    38 1   
    39    30    39 1   
    40    31    39 1   
    41    32    39 1   
@<TRIPOS>SUBSTRUCTURE
     1 5FS         1 TEMP              0 ****  ****    0 ROOT
