@<TRIPOS>MOLECULE
5FT
   58    62     1     0     0
SMALL
No Charge or Current Charge


@<TRIPOS>ATOM
      1 C25          4.3860     0.2010     3.1670 c3         1 5FT      -0.051800
      2 C06          3.9730     1.0840     1.9910 ca         1 5FT      -0.171300
      3 C05          2.7910     0.7860     1.2830 ca         1 5FT      -0.035000
      4 C01          4.7480     2.1950     1.5930 ca         1 5FT       0.153100
      5 O01          5.8980     2.5170     2.2510 oh         1 5FT      -0.537100
      6 C02          4.3430     2.9870     0.5080 ca         1 5FT      -0.154000
      7 C03          3.1650     2.6810    -0.1930 ca         1 5FT      -0.064000
      8 C04          2.3870     1.5740     0.1890 ca         1 5FT      -0.089800
      9 C07          1.1340     1.2420    -0.5400 ce         1 5FT      -0.017400
     10 C08          0.6960     0.0260    -1.0110 cf         1 5FT      -0.054400
     11 C10          1.3960    -1.2810    -1.1120 ca         1 5FT      -0.078800
     12 C11          0.6710    -2.4880    -1.2290 ca         1 5FT      -0.051000
     13 C12          1.3280    -3.7320    -1.3300 ca         1 5FT      -0.167300
     14 C26          0.5000    -5.0110    -1.4390 c3         1 5FT      -0.052800
     15 C13          2.7370    -3.7660    -1.3300 ca         1 5FT       0.151100
     16 O02          3.4110    -4.9480    -1.4290 oh         1 5FT      -0.536100
     17 C14          3.4670    -2.5750    -1.2420 ca         1 5FT      -0.150000
     18 C15          2.8050    -1.3410    -1.1400 ca         1 5FT      -0.056000
     19 C09         -0.7340     0.2430    -1.5910 c5         1 5FT       0.077800
     20 S02         -0.5540     1.8310    -2.5260 s4         1 5FT       0.158400
     21 O06         -1.9240     2.4480    -2.7230 o          1 5FT      -0.496000
     22 C16          0.0790     2.3100    -0.8520 c5         1 5FT       0.054800
     23 C17         -1.0680     1.9850     0.1650 c5         1 5FT      -0.031400
     24 C18         -1.7020     0.6580    -0.4190 c5         1 5FT      -0.318700
     25 S01         -1.8340    -0.6720     0.9010 s6         1 5FT       1.328700
     26 O04         -2.4440    -1.8680     0.3060 o          1 5FT      -0.523000
     27 O05         -0.5640    -0.7960     1.6270 o          1 5FT      -0.523000
     28 O03         -2.9280     0.0140     1.9290 os         1 5FT      -0.443800
     29 C19         -4.2420     0.1040     1.5470 ca         1 5FT       0.105100
     30 C20         -5.0860    -1.0190     1.6240 ca         1 5FT      -0.109500
     31 C21         -6.4380    -0.9090     1.2500 ca         1 5FT      -0.094000
     32 C22         -6.9470     0.3260     0.8120 ca         1 5FT      -0.104000
     33 C23         -6.1080     1.4530     0.7550 ca         1 5FT      -0.094000
     34 C24         -4.7570     1.3430     1.1300 ca         1 5FT      -0.109500
     35 H1           5.3660    -0.2590     2.9940 hc         1 5FT       0.045033
     36 H2           4.4390     0.7790     4.0980 hc         1 5FT       0.045033
     37 H3           3.6710    -0.6140     3.3330 hc         1 5FT       0.045033
     38 H4           2.1790    -0.0640     1.5800 ha         1 5FT       0.141000
     39 H5           6.0270     1.8670     2.9720 ho         1 5FT       0.470000
     40 H6           4.9450     3.8400     0.2070 ha         1 5FT       0.129000
     41 H7           2.8660     3.2990    -1.0370 ha         1 5FT       0.110000
     42 H8          -0.4140    -2.4720    -1.2370 ha         1 5FT       0.117000
     43 H9           0.7080    -5.5400    -2.3780 hc         1 5FT       0.045367
     44 H10          0.7130    -5.6940    -0.6080 hc         1 5FT       0.045367
     45 H11         -0.5760    -4.8030    -1.4180 hc         1 5FT       0.045367
     46 H12          2.7500    -5.6690    -1.4870 ho         1 5FT       0.469000
     47 H13          4.5540    -2.6040    -1.2580 ha         1 5FT       0.130000
     48 H14          3.4000    -0.4340    -1.1040 ha         1 5FT       0.123000
     49 H15         -1.1040    -0.5450    -2.2600 h1         1 5FT       0.116700
     50 H17          0.4350     3.3480    -0.8390 h1         1 5FT       0.104700
     51 H18         -0.6860     1.8910     1.1900 hc         1 5FT       0.075200
     52 H19         -1.8100     2.7920     0.1850 hc         1 5FT       0.075200
     53 H20         -2.7240     0.8140    -0.7820 h1         1 5FT       0.123700
     54 H21         -4.6970    -1.9730     1.9720 ha         1 5FT       0.133000
     55 H22         -7.0900    -1.7790     1.3030 ha         1 5FT       0.122500
     56 H23         -7.9930     0.4120     0.5230 ha         1 5FT       0.120000
     57 H24         -6.5050     2.4110     0.4260 ha         1 5FT       0.122500
     58 H25         -4.1120     2.2170     1.0970 ha         1 5FT       0.133000
@<TRIPOS>BOND
     1     1     2 1   
     2     1    35 1   
     3     1    36 1   
     4     1    37 1   
     5     2     3 ar  
     6     2     4 ar  
     7     3     8 ar  
     8     3    38 1   
     9     4     5 1   
    10     4     6 ar  
    11     5    39 1   
    12     6     7 ar  
    13     6    40 1   
    14     7     8 ar  
    15     7    41 1   
    16     8     9 1   
    17     9    10 2   
    18     9    22 1   
    19    10    11 1   
    20    10    19 1   
    21    11    12 ar  
    22    11    18 ar  
    23    12    13 ar  
    24    12    42 1   
    25    13    14 1   
    26    13    15 ar  
    27    14    43 1   
    28    14    44 1   
    29    14    45 1   
    30    15    16 1   
    31    15    17 ar  
    32    16    46 1   
    33    17    18 ar  
    34    17    47 1   
    35    18    48 1   
    36    19    20 1   
    37    19    24 1   
    38    19    49 1   
    39    20    21 2   
    40    20    22 1   
    41    22    23 1   
    42    22    50 1   
    43    23    24 1   
    44    23    51 1   
    45    23    52 1   
    46    24    25 1   
    47    24    53 1   
    48    25    26 2   
    49    25    27 2   
    50    25    28 1   
    51    28    29 1   
    52    29    30 ar  
    53    29    34 ar  
    54    30    31 ar  
    55    30    54 1   
    56    31    32 ar  
    57    31    55 1   
    58    32    33 ar  
    59    32    56 1   
    60    33    34 ar  
    61    33    57 1   
    62    34    58 1   
@<TRIPOS>SUBSTRUCTURE
     1 5FT         1 TEMP              0 ****  ****    0 ROOT
