@<TRIPOS>MOLECULE
5FT
   58    62     1     0     0
SMALL
abcg2


@<TRIPOS>ATOM
      1 C25          4.3080    -0.0330     3.0650 c3         1 5FT      -0.051800
      2 C06          3.9050     0.8970     1.9580 ca         1 5FT      -0.171300
      3 C05          2.7560     0.6660     1.2170 ca         1 5FT      -0.035000
      4 C01          4.6780     2.0250     1.6490 ca         1 5FT       0.153100
      5 O01          5.8120     2.3260     2.3120 oh         1 5FT      -0.537100
      6 C02          4.2830     2.8880     0.6310 ca         1 5FT      -0.154000
      7 C03          3.1280     2.6370    -0.0890 ca         1 5FT      -0.064000
      8 C04          2.3530     1.5110     0.1830 ca         1 5FT      -0.089800
      9 C07          1.1230     1.2270    -0.5590 ce         1 5FT      -0.017400
     10 C08          0.6860     0.0420    -1.0420 cf         1 5FT      -0.054400
     11 C10          1.4250    -1.2160    -1.1730 ca         1 5FT      -0.078800
     12 C11          0.7800    -2.4490    -1.0950 ca         1 5FT      -0.051000
     13 C12          1.4530    -3.6580    -1.2150 ca         1 5FT      -0.167300
     14 C26          0.7220    -4.9640    -1.0990 c3         1 5FT      -0.052800
     15 C13          2.8340    -3.6270    -1.4330 ca         1 5FT       0.151100
     16 O02          3.5760    -4.7440    -1.5580 oh         1 5FT      -0.536100
     17 C14          3.4960    -2.4060    -1.5440 ca         1 5FT      -0.150000
     18 C15          2.8000    -1.2200    -1.4170 ca         1 5FT      -0.056000
     19 C09         -0.7200     0.2030    -1.5510 c5         1 5FT       0.077800
     20 S02         -0.4730     1.8030    -2.4650 s4         1 5FT       0.158400
     21 O06         -1.7940     2.4400    -2.7690 o          1 5FT      -0.496000
     22 C16          0.0800     2.2860    -0.7690 c5         1 5FT       0.054800
     23 C17         -1.1470     1.9900     0.1010 c5         1 5FT      -0.031400
     24 C18         -1.7000     0.6660    -0.4530 c5         1 5FT      -0.318700
     25 S01         -1.9100    -0.5980     0.7940 s6         1 5FT       1.328700
     26 O04         -2.5330    -1.7520     0.1790 o          1 5FT      -0.523000
     27 O05         -0.7200    -0.7510     1.5950 o          1 5FT      -0.523000
     28 O03         -2.9640     0.1040     1.8140 os         1 5FT      -0.443800
     29 C19         -4.3090     0.1740     1.4720 ca         1 5FT       0.105100
     30 C20         -5.1270    -0.9260     1.6740 ca         1 5FT      -0.109500
     31 C21         -6.4790    -0.8150     1.3810 ca         1 5FT      -0.094000
     32 C22         -6.9970     0.3780     0.8920 ca         1 5FT      -0.104000
     33 C23         -6.1620     1.4700     0.7010 ca         1 5FT      -0.094000
     34 C24         -4.8080     1.3740     0.9910 ca         1 5FT      -0.109500
     35 H1           5.2840    -0.4900     2.8830 hc         1 5FT       0.045033
     36 H2           4.3550     0.4710     4.0330 hc         1 5FT       0.045033
     37 H3           3.5890    -0.8450     3.1620 hc         1 5FT       0.045033
     38 H4           2.1470    -0.1960     1.4600 ha         1 5FT       0.141000
     39 H5           5.9980     1.6770     2.9980 ho         1 5FT       0.470000
     40 H6           4.8870     3.7590     0.4050 ha         1 5FT       0.129000
     41 H7           2.8450     3.3200    -0.8800 ha         1 5FT       0.110000
     42 H8          -0.2900    -2.4930    -0.9330 ha         1 5FT       0.117000
     43 H9           0.8540    -5.5960    -1.9820 hc         1 5FT       0.045367
     44 H10          1.0510    -5.5410    -0.2310 hc         1 5FT       0.045367
     45 H11         -0.3480    -4.7990    -0.9850 hc         1 5FT       0.045367
     46 H12          3.0320    -5.5360    -1.4820 ho         1 5FT       0.469000
     47 H13          4.5610    -2.3930    -1.7370 ha         1 5FT       0.130000
     48 H14          3.3370    -0.2870    -1.5240 ha         1 5FT       0.123000
     49 H15         -1.1070    -0.5880    -2.1890 h1         1 5FT       0.116700
     50 H17          0.4260     3.3150    -0.7080 h1         1 5FT       0.104700
     51 H18         -0.8450     1.9400     1.1470 hc         1 5FT       0.075200
     52 H19         -1.8940     2.7780     0.0120 hc         1 5FT       0.075200
     53 H20         -2.6930     0.7960    -0.8940 h1         1 5FT       0.123700
     54 H21         -4.7230    -1.8480     2.0680 ha         1 5FT       0.133000
     55 H22         -7.1290    -1.6640     1.5390 ha         1 5FT       0.122500
     56 H23         -8.0520     0.4570     0.6670 ha         1 5FT       0.120000
     57 H24         -6.5600     2.4030     0.3270 ha         1 5FT       0.122500
     58 H25         -4.1550     2.2280     0.8640 ha         1 5FT       0.133000
@<TRIPOS>BOND
     1     1     2 1   
     2     1    35 1   
     3     1    36 1   
     4     1    37 1   
     5     2     3 ar  
     6     2     4 ar  
     7     3     8 ar  
     8     3    38 1   
     9     4     5 1   
    10     4     6 ar  
    11     5    39 1   
    12     6     7 ar  
    13     6    40 1   
    14     7     8 ar  
    15     7    41 1   
    16     8     9 1   
    17     9    10 2   
    18     9    22 1   
    19    10    11 1   
    20    10    19 1   
    21    11    12 ar  
    22    11    18 ar  
    23    12    13 ar  
    24    12    42 1   
    25    13    14 1   
    26    13    15 ar  
    27    14    43 1   
    28    14    44 1   
    29    14    45 1   
    30    15    16 1   
    31    15    17 ar  
    32    16    46 1   
    33    17    18 ar  
    34    17    47 1   
    35    18    48 1   
    36    19    20 1   
    37    19    24 1   
    38    19    49 1   
    39    20    21 2   
    40    20    22 1   
    41    22    23 1   
    42    22    50 1   
    43    23    24 1   
    44    23    51 1   
    45    23    52 1   
    46    24    25 1   
    47    24    53 1   
    48    25    26 2   
    49    25    27 2   
    50    25    28 1   
    51    28    29 1   
    52    29    30 ar  
    53    29    34 ar  
    54    30    31 ar  
    55    30    54 1   
    56    31    32 ar  
    57    31    55 1   
    58    32    33 ar  
    59    32    56 1   
    60    33    34 ar  
    61    33    57 1   
    62    34    58 1   
@<TRIPOS>SUBSTRUCTURE
     1 5FT         1 TEMP              0 ****  ****    0 ROOT
