@<TRIPOS>MOLECULE
5FW
   32    32     1     0     0
SMALL
abcg2


@<TRIPOS>ATOM
      1 CAI          5.2050    -1.0790    -0.0670 c3         1 5FW      -0.108100
      2 CAG          3.8880    -0.7120     0.6030 c3         1 5FW       0.175500
      3 CAJ          4.1250     0.2330     1.7810 c3         1 5FW      -0.108100
      4 NAD          2.9700    -0.2010    -0.4070 n7         1 5FW      -0.868400
      5 CAF          1.6260     0.0580     0.0600 c3         1 5FW       0.132800
      6 CAE          0.6760     0.3240    -1.1080 c3         1 5FW       0.216600
      7 OAA          1.0800     1.4490    -1.8530 oh         1 5FW      -0.646000
      8 CAH         -0.7510     0.4220    -0.6110 ca         1 5FW      -0.114300
      9 CAK         -1.3940    -0.7380    -0.1750 ca         1 5FW      -0.156000
     10 CAL         -1.4380     1.6230    -0.5410 ca         1 5FW      -0.093000
     11 CAN         -2.7340     1.6710    -0.0350 ca         1 5FW      -0.122000
     12 CAO         -3.3670     0.5210     0.4040 ca         1 5FW       0.123100
     13 OAC         -4.6260     0.6010     0.8880 oh         1 5FW      -0.534100
     14 CAM         -2.6820    -0.7000     0.3280 ca         1 5FW       0.046100
     15 OAB         -3.3550    -1.7890     0.7660 oh         1 5FW      -0.558100
     16 HAI1         5.8940    -1.5290     0.6490 hc         1 5FW       0.037367
     17 HAI2         5.0480    -1.7910    -0.8780 hc         1 5FW       0.037367
     18 HAI3         5.6920    -0.1940    -0.4840 hc         1 5FW       0.037367
     19 HAG          3.4380    -1.6330     0.9920 h1         1 5FW       0.053700
     20 HAJ1         4.5810     1.1670     1.4420 hc         1 5FW       0.037367
     21 HAJ2         3.1970     0.4820     2.2970 hc         1 5FW       0.037367
     22 HAJ3         4.7950    -0.2180     2.5150 hc         1 5FW       0.037367
     23 HAD          3.3590     0.6420    -0.8140 hn         1 5FW       0.416000
     24 HAF1         1.2730    -0.8280     0.5940 h1         1 5FW       0.034200
     25 HAF2         1.5430     0.8970     0.7690 h1         1 5FW       0.034200
     26 HAE          0.7500    -0.5250    -1.7960 h1         1 5FW       0.093700
     27 HAA          1.2200     2.1880    -1.2510 ho         1 5FW       0.435000
     28 HAK         -0.8810    -1.6930    -0.2340 ha         1 5FW       0.113000
     29 HAL         -0.9840     2.5450    -0.8800 ha         1 5FW       0.119000
     30 HAN         -3.2620     2.6150     0.0190 ha         1 5FW       0.131000
     31 HAC         -4.9480    -0.2720     1.1400 ho         1 5FW       0.482000
     32 HAB         -2.8120    -2.5810     0.6900 ho         1 5FW       0.475000
@<TRIPOS>BOND
     1     1     2 1   
     2     1    16 1   
     3     1    17 1   
     4     1    18 1   
     5     2     3 1   
     6     2     4 1   
     7     2    19 1   
     8     3    20 1   
     9     3    21 1   
    10     3    22 1   
    11     4     5 1   
    12     4    23 1   
    13     5     6 1   
    14     5    24 1   
    15     5    25 1   
    16     6     7 1   
    17     6     8 1   
    18     6    26 1   
    19     7    27 1   
    20     8     9 ar  
    21     8    10 ar  
    22     9    14 ar  
    23     9    28 1   
    24    10    11 ar  
    25    10    29 1   
    26    11    12 ar  
    27    11    30 1   
    28    12    13 1   
    29    12    14 ar  
    30    13    31 1   
    31    14    15 1   
    32    15    32 1   
@<TRIPOS>SUBSTRUCTURE
     1 5FW         1 TEMP              0 ****  ****    0 ROOT
