@<TRIPOS>MOLECULE
5FW
   32    32     1     0     0
SMALL
No Charge or Current Charge


@<TRIPOS>ATOM
      1 CAI          5.3490    -1.1710     0.2660 c3         1 5FW      -0.108100
      2 CAG          4.1350    -0.4100     0.8340 c3         1 5FW       0.175500
      3 CAJ          4.4870     1.0570     1.1630 c3         1 5FW      -0.108100
      4 NAD          3.0400    -0.4760    -0.1510 n7         1 5FW      -0.868400
      5 CAF          1.6800    -0.1150     0.3260 c3         1 5FW       0.132800
      6 CAE          0.6280    -0.1800    -0.8250 c3         1 5FW       0.216600
      7 OAA          0.9610     0.7590    -1.8630 oh         1 5FW      -0.646000
      8 CAH         -0.8040     0.0820    -0.3480 ca         1 5FW      -0.114300
      9 CAK         -1.8360    -0.8120    -0.7090 ca         1 5FW      -0.156000
     10 CAL         -1.1180     1.2120     0.4400 ca         1 5FW      -0.093000
     11 CAN         -2.4390     1.4390     0.8670 ca         1 5FW      -0.122000
     12 CAO         -3.4550     0.5420     0.5080 ca         1 5FW       0.123100
     13 OAC         -4.7380     0.7540     0.9180 oh         1 5FW      -0.534100
     14 CAM         -3.1560    -0.5860    -0.2820 ca         1 5FW       0.046100
     15 OAB         -4.1520    -1.4590    -0.6340 oh         1 5FW      -0.558100
     16 HAI1         6.1750    -1.1700     0.9870 hc         1 5FW       0.037367
     17 HAI2         5.0870    -2.2150     0.0550 hc         1 5FW       0.037367
     18 HAI3         5.7050    -0.7090    -0.6640 hc         1 5FW       0.037367
     19 HAG          3.8360    -0.9130     1.7650 h1         1 5FW       0.053700
     20 HAJ1         4.7500     1.6130     0.2550 hc         1 5FW       0.037367
     21 HAJ2         3.6500     1.5670     1.6530 hc         1 5FW       0.037367
     22 HAJ3         5.3430     1.0990     1.8470 hc         1 5FW       0.037367
     23 HAD          3.2720     0.1350    -0.9440 hn         1 5FW       0.416000
     24 HAF1         1.3670    -0.8010     1.1250 h1         1 5FW       0.034200
     25 HAF2         1.6780     0.8980     0.7470 h1         1 5FW       0.034200
     26 HAE          0.6700    -1.2020    -1.2290 h1         1 5FW       0.093700
     27 HAA          0.6620     1.6370    -1.5470 ho         1 5FW       0.435000
     28 HAK         -1.6060    -1.6820    -1.3210 ha         1 5FW       0.113000
     29 HAL         -0.3440     1.9220     0.7240 ha         1 5FW       0.119000
     30 HAN         -2.6730     2.3100     1.4750 ha         1 5FW       0.131000
     31 HAC         -5.2630     0.0080     0.5490 ho         1 5FW       0.482000
     32 HAB         -3.7650    -2.1780    -1.1820 ho         1 5FW       0.475000
@<TRIPOS>BOND
     1     1     2 1   
     2     1    16 1   
     3     1    17 1   
     4     1    18 1   
     5     2     3 1   
     6     2     4 1   
     7     2    19 1   
     8     3    20 1   
     9     3    21 1   
    10     3    22 1   
    11     4     5 1   
    12     4    23 1   
    13     5     6 1   
    14     5    24 1   
    15     5    25 1   
    16     6     7 1   
    17     6     8 1   
    18     6    26 1   
    19     7    27 1   
    20     8     9 ar  
    21     8    10 ar  
    22     9    14 ar  
    23     9    28 1   
    24    10    11 ar  
    25    10    29 1   
    26    11    12 ar  
    27    11    30 1   
    28    12    13 1   
    29    12    14 ar  
    30    13    31 1   
    31    14    15 1   
    32    15    32 1   
@<TRIPOS>SUBSTRUCTURE
     1 5FW         1 TEMP              0 ****  ****    0 ROOT
