@<TRIPOS>MOLECULE
5FX
   19    18     1     0     0
SMALL
bcc


@<TRIPOS>ATOM
      1 C1          -1.9580    -0.9630    -0.4030 c3         1 5FX       0.043400
      2 O1          -3.3330    -0.9410    -0.1780 oh         1 5FX      -0.565800
      3 C2          -1.3730     0.3770    -0.0540 c          1 5FX       0.542100
      4 O2          -1.9900     1.2230     0.5460 o          1 5FX      -0.485100
      5 C3           0.0470     0.6680    -0.5190 c3         1 5FX       0.006100
      6 O3           0.4830     1.8960    -0.0130 oh         1 5FX      -0.597800
      7 C4           1.0100    -0.4280    -0.0580 c3         1 5FX       0.115100
      8 O4           0.9620    -0.5760     1.3380 oh         1 5FX      -0.581800
      9 C5           2.4120    -0.1500    -0.5670 c3         1 5FX       0.140900
     10 F            3.2350    -1.2250    -0.2620 f          1 5FX      -0.241300
     11 H11C        -1.4420    -1.7130     0.2150 h1         1 5FX       0.046200
     12 H12C        -1.6940    -1.1970    -1.4440 h1         1 5FX       0.046200
     13 H1          -3.6740    -1.8210    -0.3640 ho         1 5FX       0.412000
     14 H3           0.0200     0.6740    -1.6210 h1         1 5FX       0.069700
     15 HA          -0.2900     2.3640     0.3340 ho         1 5FX       0.438000
     16 H4           0.6910    -1.3830    -0.4870 h1         1 5FX       0.081700
     17 HB           1.1240     0.2880     1.7340 ho         1 5FX       0.420000
     18 H51C         2.4040    -0.0210    -1.6510 h1         1 5FX       0.055200
     19 H52C         2.8400     0.7450    -0.1130 h1         1 5FX       0.055200
@<TRIPOS>BOND
     1     1     2 1   
     2     1     3 1   
     3     1    11 1   
     4     1    12 1   
     5     2    13 1   
     6     3     4 2   
     7     3     5 1   
     8     5     6 1   
     9     5     7 1   
    10     5    14 1   
    11     6    15 1   
    12     7     8 1   
    13     7     9 1   
    14     7    16 1   
    15     8    17 1   
    16     9    10 1   
    17     9    18 1   
    18     9    19 1   
@<TRIPOS>SUBSTRUCTURE
     1 5FX         1 TEMP              0 ****  ****    0 ROOT
