@<TRIPOS>MOLECULE
5FX
   19    18     1     0     0
SMALL
No Charge or Current Charge


@<TRIPOS>ATOM
      1 C1          -2.0140    -1.0070    -0.3920 c3         1 5FX       0.066600
      2 O1          -3.4610    -0.9970    -0.4890 oh         1 5FX      -0.628000
      3 C2          -1.4100     0.3290     0.1390 c          1 5FX       0.542100
      4 O2          -2.0620     1.1230     0.8150 o          1 5FX      -0.485100
      5 C3           0.0350     0.6740    -0.3510 c3         1 5FX       0.029300
      6 O3           0.5030     1.9660     0.1390 oh         1 5FX      -0.660000
      7 C4           1.0640    -0.4240     0.0430 c3         1 5FX       0.138300
      8 O4           1.2250    -0.4040     1.4730 oh         1 5FX      -0.644000
      9 C5           2.4330    -0.2310    -0.6670 c3         1 5FX       0.159600
     10 F            3.2710    -1.2630    -0.3870 f          1 5FX      -0.260000
     11 H11C        -1.6780    -1.8070     0.2820 h1         1 5FX       0.046200
     12 H12C        -1.5730    -1.2030    -1.3780 h1         1 5FX       0.046200
     13 H1          -3.7450    -1.8840    -0.8110 ho         1 5FX       0.451000
     14 H3          -0.0260     0.6950    -1.4480 h1         1 5FX       0.069700
     15 HA          -0.2630     2.5890     0.1270 ho         1 5FX       0.477000
     16 H4           0.6790    -1.4030    -0.2770 h1         1 5FX       0.081700
     17 HB           1.3030     0.5490     1.7110 ho         1 5FX       0.459000
     18 H51C         2.2870    -0.1900    -1.7530 h1         1 5FX       0.055200
     19 H52C         2.9060     0.7050    -0.3430 h1         1 5FX       0.055200
@<TRIPOS>BOND
     1     1     2 1   
     2     1     3 1   
     3     1    11 1   
     4     1    12 1   
     5     2    13 1   
     6     3     4 2   
     7     3     5 1   
     8     5     6 1   
     9     5     7 1   
    10     5    14 1   
    11     6    15 1   
    12     7     8 1   
    13     7     9 1   
    14     7    16 1   
    15     8    17 1   
    16     9    10 1   
    17     9    18 1   
    18     9    19 1   
@<TRIPOS>SUBSTRUCTURE
     1 5FX         1 TEMP              0 ****  ****    0 ROOT
