@<TRIPOS>MOLECULE
5FZ
   43    45     1     0     0
SMALL
No Charge or Current Charge


@<TRIPOS>ATOM
      1 CAW         14.7760    10.4360     3.2610 c3         1 5FZ       0.149900
      2 OAJ         13.4760    10.1190     2.7320 os         1 5FZ      -0.346100
      3 CAH         13.1740     8.8760     2.1960 ca         1 5FZ       0.168100
      4 CAI         14.1410     7.8380     2.1450 ca         1 5FZ      -0.218000
      5 CAA         13.7560     6.6110     1.6020 ca         1 5FZ       0.124100
      6 OAB         14.5340     5.4940     1.4660 os         1 5FZ      -0.118100
      7 NAC         13.6810     4.4690     0.8430 nc         1 5FZ      -0.296700
      8 CAD         12.4880     5.0450     0.6630 cd         1 5FZ       0.405900
      9 CAX         11.3340     4.2980     0.0450 c3         1 5FZ      -0.100700
     10 CAY         11.0890     4.6850    -1.4280 c3         1 5FZ      -0.085100
     11 CAE         12.5040     6.4000     1.1320 ca         1 5FZ      -0.288900
     12 CAF         11.5150     7.3930     1.1530 ca         1 5FZ       0.043000
     13 CAG         11.8500     8.6560     1.7020 ca         1 5FZ       0.158000
     14 NAK         10.9090     9.6990     1.7770 nu         1 5FZ      -0.847100
     15 SAL          9.2400     9.6250     1.9420 sy         1 5FZ       1.147600
     16 OAM          8.7590     9.1020     0.6600 o          1 5FZ      -0.535000
     17 OAN          8.9140    10.9710     2.4160 o          1 5FZ      -0.535000
     18 CAO          8.9660     8.4380     3.2580 ca         1 5FZ      -0.348500
     19 CAP          9.2690     8.7900     4.5860 ca         1 5FZ       0.030000
     20 CAQ          9.0760     7.8560     5.6160 ca         1 5FZ      -0.202500
     21 CAR          8.5850     6.5730     5.3330 ca         1 5FZ       0.192100
     22 OAU          8.4200     5.7000     6.3890 os         1 5FZ      -0.336100
     23 CAV          7.9280     4.3600     6.2070 c3         1 5FZ       0.145900
     24 CAS          8.2810     6.2220     4.0010 ca         1 5FZ      -0.202500
     25 CAT          8.4700     7.1520     2.9650 ca         1 5FZ       0.030000
     26 H1          14.7940    11.4690     3.6310 h1         1 5FZ       0.049700
     27 H2          15.0310     9.7720     4.0960 h1         1 5FZ       0.049700
     28 H3          15.5470    10.3400     2.4850 h1         1 5FZ       0.049700
     29 H4          15.1550     7.9650     2.5110 ha         1 5FZ       0.144000
     30 H5          10.4230     4.4940     0.6230 hc         1 5FZ       0.063200
     31 H6          11.5110     3.2180     0.1060 hc         1 5FZ       0.063200
     32 H7          10.2420     4.1210    -1.8370 hc         1 5FZ       0.043700
     33 H8          10.8650     5.7550    -1.5180 hc         1 5FZ       0.043700
     34 H9          11.9750     4.4660    -2.0380 hc         1 5FZ       0.043700
     35 H10         10.5260     7.1920     0.7550 ha         1 5FZ       0.153000
     36 H11         11.2020    10.5320     2.2720 hn         1 5FZ       0.493000
     37 H12          9.6570     9.7800     4.8230 ha         1 5FZ       0.137000
     38 H13          9.3120     8.1270     6.6420 ha         1 5FZ       0.128000
     39 H14          7.8760     3.8400     7.1720 h1         1 5FZ       0.046700
     40 H15          6.9200     4.3700     5.7720 h1         1 5FZ       0.046700
     41 H16          8.5920     3.7870     5.5480 h1         1 5FZ       0.046700
     42 H17          7.8990     5.2370     3.7500 ha         1 5FZ       0.128000
     43 H18          8.2300     6.8660     1.9420 ha         1 5FZ       0.137000
@<TRIPOS>BOND
     1     1     2 1   
     2     1    26 1   
     3     1    27 1   
     4     1    28 1   
     5     2     3 1   
     6     3     4 ar  
     7     3    13 ar  
     8     4     5 ar  
     9     4    29 1   
    10     5     6 1   
    11     5    11 ar  
    12     6     7 1   
    13     7     8 2   
    14     8     9 1   
    15     8    11 1   
    16     9    10 1   
    17     9    30 1   
    18     9    31 1   
    19    10    32 1   
    20    10    33 1   
    21    10    34 1   
    22    11    12 ar  
    23    12    13 ar  
    24    12    35 1   
    25    13    14 1   
    26    14    15 1   
    27    14    36 1   
    28    15    16 2   
    29    15    17 2   
    30    15    18 1   
    31    18    19 ar  
    32    18    25 ar  
    33    19    20 ar  
    34    19    37 1   
    35    20    21 ar  
    36    20    38 1   
    37    21    22 1   
    38    21    24 ar  
    39    22    23 1   
    40    23    39 1   
    41    23    40 1   
    42    23    41 1   
    43    24    25 ar  
    44    24    42 1   
    45    25    43 1   
@<TRIPOS>SUBSTRUCTURE
     1 5FZ         1 TEMP              0 ****  ****    0 ROOT
