@<TRIPOS>MOLECULE
5FZ
   43    45     1     0     0
SMALL
abcg2


@<TRIPOS>ATOM
      1 CAW         12.7120     8.5260     4.7110 c3         1 5FZ       0.149900
      2 OAJ         11.9900     8.8260     3.5310 os         1 5FZ      -0.346100
      3 CAH         12.0870     8.0070     2.4830 ca         1 5FZ       0.168100
      4 CAI         12.9300     6.9070     2.4310 ca         1 5FZ      -0.218000
      5 CAA         12.9010     6.1750     1.2520 ca         1 5FZ       0.124100
      6 OAB         13.6230     5.0850     0.9690 os         1 5FZ      -0.118100
      7 NAC         13.3090     4.6660    -0.3100 nc         1 5FZ      -0.296700
      8 CAD         12.4210     5.4750    -0.7910 cd         1 5FZ       0.405900
      9 CAX         11.8530     5.3200    -2.1590 c3         1 5FZ      -0.100700
     10 CAY         12.4370     4.1710    -2.9670 c3         1 5FZ      -0.085100
     11 CAE         12.1010     6.4890     0.1680 ca         1 5FZ      -0.288900
     12 CAF         11.2650     7.6010     0.2220 ca         1 5FZ       0.043000
     13 CAG         11.2570     8.3530     1.3750 ca         1 5FZ       0.158000
     14 NAK         10.3990     9.4760     1.4630 nu         1 5FZ      -0.847100
     15 SAL          8.8180     9.2100     1.9400 sy         1 5FZ       1.147600
     16 OAM          8.2900     8.1870     1.0560 o          1 5FZ      -0.535000
     17 OAN          8.2110    10.5280     1.9880 o          1 5FZ      -0.535000
     18 CAO          8.9040     8.5520     3.5680 ca         1 5FZ      -0.348500
     19 CAP          8.9000     9.4180     4.6580 ca         1 5FZ       0.030000
     20 CAQ          9.0960     8.9190     5.9260 ca         1 5FZ      -0.202500
     21 CAR          9.3200     7.5510     6.1220 ca         1 5FZ       0.192100
     22 OAU          9.5290     7.1670     7.3840 os         1 5FZ      -0.336100
     23 CAV          9.8260     5.8070     7.6480 c3         1 5FZ       0.145900
     24 CAS          9.3100     6.6870     5.0260 ca         1 5FZ      -0.202500
     25 CAT          9.1000     7.1910     3.7520 ca         1 5FZ       0.030000
     26 H1          12.4450     9.2910     5.4340 h1         1 5FZ       0.049700
     27 H2          12.4370     7.5470     5.1110 h1         1 5FZ       0.049700
     28 H3          13.7910     8.5550     4.5420 h1         1 5FZ       0.049700
     29 H4          13.5740     6.6240     3.2520 ha         1 5FZ       0.144000
     30 H5          11.9960     6.2650    -2.6910 hc         1 5FZ       0.063200
     31 H6          10.7710     5.2030    -2.0610 hc         1 5FZ       0.063200
     32 H7          11.9690     4.1360    -3.9500 hc         1 5FZ       0.043700
     33 H8          13.5100     4.2880    -3.1110 hc         1 5FZ       0.043700
     34 H9          12.2660     3.2110    -2.4810 hc         1 5FZ       0.043700
     35 H10         10.6390     7.8850    -0.6130 ha         1 5FZ       0.153000
     36 H11         10.7920    10.2790     1.9450 hn         1 5FZ       0.493000
     37 H12          8.7450    10.4800     4.5240 ha         1 5FZ       0.137000
     38 H13          9.0890     9.5840     6.7800 ha         1 5FZ       0.128000
     39 H14          9.9950     5.7320     8.7190 h1         1 5FZ       0.046700
     40 H15          8.9980     5.1490     7.3740 h1         1 5FZ       0.046700
     41 H16         10.7280     5.4820     7.1240 h1         1 5FZ       0.046700
     42 H17          9.4630     5.6230     5.1430 ha         1 5FZ       0.128000
     43 H18          9.0950     6.5100     2.9120 ha         1 5FZ       0.137000
@<TRIPOS>BOND
     1     1     2 1   
     2     1    26 1   
     3     1    27 1   
     4     1    28 1   
     5     2     3 1   
     6     3     4 ar  
     7     3    13 ar  
     8     4     5 ar  
     9     4    29 1   
    10     5     6 1   
    11     5    11 ar  
    12     6     7 1   
    13     7     8 2   
    14     8     9 1   
    15     8    11 1   
    16     9    10 1   
    17     9    30 1   
    18     9    31 1   
    19    10    32 1   
    20    10    33 1   
    21    10    34 1   
    22    11    12 ar  
    23    12    13 ar  
    24    12    35 1   
    25    13    14 1   
    26    14    15 1   
    27    14    36 1   
    28    15    16 2   
    29    15    17 2   
    30    15    18 1   
    31    18    19 ar  
    32    18    25 ar  
    33    19    20 ar  
    34    19    37 1   
    35    20    21 ar  
    36    20    38 1   
    37    21    22 1   
    38    21    24 ar  
    39    22    23 1   
    40    23    39 1   
    41    23    40 1   
    42    23    41 1   
    43    24    25 ar  
    44    24    42 1   
    45    25    43 1   
@<TRIPOS>SUBSTRUCTURE
     1 5FZ         1 TEMP              0 ****  ****    0 ROOT
