@<TRIPOS>MOLECULE
5G0
   44    45     1     0     0
SMALL
bcc


@<TRIPOS>ATOM
      1 OAR          2.2480    -1.4460     0.1320 o          1 5G0      -0.530000
      2 CAP          2.0110    -0.2680     0.0720 c          1 5G0       0.770100
      3 NAO          2.9070     0.7490     0.0470 ns         1 5G0      -0.476100
      4 CAS          4.3020     0.6580     0.0640 ca         1 5G0       0.089600
      5 CAT          5.0100     1.8040    -0.3060 ca         1 5G0      -0.168500
      6 CAU          6.3950     1.8120    -0.2960 ca         1 5G0      -0.101500
      7 CAV          7.1010     0.6770     0.0800 ca         1 5G0      -0.157000
      8 CAW          6.3980    -0.4590     0.4520 ca         1 5G0      -0.101500
      9 CAX          5.0090    -0.4800     0.4520 ca         1 5G0      -0.168500
     10 OAQ          0.7740     0.2740     0.0220 os         1 5G0      -0.203600
     11 NAY         -0.2280    -0.6760    -0.0200 n2         1 5G0      -0.418200
     12 CAA         -1.3740    -0.1280    -0.0300 c2         1 5G0       0.554600
     13 OAL         -1.5360     1.1840     0.0620 os         1 5G0      -0.397400
     14 CAE         -2.6960     1.8050    -0.5140 c6         1 5G0       0.125100
     15 CAF         -2.7450     3.2240     0.0010 c3         1 5G0       0.145400
     16 OAM         -1.6200     3.9180    -0.4760 oh         1 5G0      -0.579800
     17 CAD         -3.9590     1.0130    -0.2100 c6         1 5G0       0.083100
     18 OAK         -4.2330     0.9350     1.1640 oh         1 5G0      -0.563800
     19 CAC         -3.7640    -0.4030    -0.7460 c6         1 5G0       0.146100
     20 CAB         -2.5800    -1.0500    -0.0280 c6         1 5G0       0.059400
     21 NAI         -2.2670    -2.3330    -0.5780 ns         1 5G0      -0.556900
     22 CAG         -2.0330    -3.4290     0.1720 c          1 5G0       0.688100
     23 OAN         -2.1490    -3.4400     1.3880 o          1 5G0      -0.589100
     24 CAH         -1.5980    -4.6450    -0.6040 c3         1 5G0      -0.177100
     25 OAJ         -4.8730    -1.2260    -0.5380 oh         1 5G0      -0.555800
     26 HAO          2.5320     1.6770    -0.0850 hn         1 5G0       0.333500
     27 HAT          4.4710     2.6940    -0.6090 ha         1 5G0       0.146000
     28 HAX          4.4960    -1.3770     0.7590 ha         1 5G0       0.146000
     29 HAU          6.9200     2.7120    -0.5890 ha         1 5G0       0.130500
     30 HAV          8.1830     0.6800     0.0850 ha         1 5G0       0.132000
     31 HAW          6.9310    -1.3500     0.7560 ha         1 5G0       0.130500
     32 HAB         -2.8610    -1.1970     1.0190 h1         1 5G0       0.142700
     33 HAE         -2.5650     1.8320    -1.6030 h1         1 5G0       0.064700
     34 HAF1        -3.6830     3.6680    -0.3580 h1         1 5G0       0.031200
     35 HAF2        -2.7870     3.2190     1.0970 h1         1 5G0       0.031200
     36 HAD         -4.7820     1.4860    -0.7640 h1         1 5G0       0.040700
     37 HAM         -1.6470     4.8100    -0.1180 ho         1 5G0       0.411000
     38 HAK         -4.7010     1.7260     1.4430 ho         1 5G0       0.409000
     39 HAC         -3.5260    -0.3140    -1.8170 h1         1 5G0       0.033700
     40 HAJ         -5.5770    -0.9510    -1.1340 ho         1 5G0       0.405000
     41 HAI         -2.0870    -2.3830    -1.5690 hn         1 5G0       0.311500
     42 HAH1        -1.8020    -4.5720    -1.6700 hc         1 5G0       0.062367
     43 HAH2        -0.5230    -4.7810    -0.4750 hc         1 5G0       0.062367
     44 HAH3        -2.0910    -5.5310    -0.2100 hc         1 5G0       0.062367
@<TRIPOS>BOND
     1     1     2 2   
     2     2     3 1   
     3     2    10 1   
     4     3     4 1   
     5     3    26 1   
     6     4     5 ar  
     7     4     9 ar  
     8     5     6 ar  
     9     5    27 1   
    10     6     7 ar  
    11     6    29 1   
    12     7     8 ar  
    13     7    30 1   
    14     8     9 ar  
    15     8    31 1   
    16     9    28 1   
    17    10    11 1   
    18    11    12 2   
    19    12    13 1   
    20    12    20 1   
    21    13    14 1   
    22    14    15 1   
    23    14    17 1   
    24    14    33 1   
    25    15    16 1   
    26    15    34 1   
    27    15    35 1   
    28    16    37 1   
    29    17    18 1   
    30    17    19 1   
    31    17    36 1   
    32    18    38 1   
    33    19    20 1   
    34    19    25 1   
    35    19    39 1   
    36    20    21 1   
    37    20    32 1   
    38    21    22 1   
    39    21    41 1   
    40    22    23 2   
    41    22    24 1   
    42    24    42 1   
    43    24    43 1   
    44    24    44 1   
    45    25    40 1   
@<TRIPOS>SUBSTRUCTURE
     1 5G0         1 TEMP              0 ****  ****    0 ROOT
