@<TRIPOS>MOLECULE
5G0
   44    45     1     0     0
SMALL
No Charge or Current Charge


@<TRIPOS>ATOM
      1 OAR          2.3470    -1.5660    -0.0650 o          1 5G0      -0.481000
      2 CAP          2.0930    -0.3720     0.0420 c          1 5G0       0.654100
      3 NAO          3.0150     0.6570     0.1220 ns         1 5G0      -0.150000
      4 CAS          4.4370     0.6700     0.1100 ca         1 5G0      -0.003000
      5 CAT          5.0790     1.9190     0.2080 ca         1 5G0      -0.150500
      6 CAU          6.4820     2.0080     0.2020 ca         1 5G0      -0.083500
      7 CAV          7.2570     0.8430     0.0960 ca         1 5G0      -0.139000
      8 CAW          6.6290    -0.4090    -0.0020 ca         1 5G0      -0.083500
      9 CAX          5.2260    -0.4980     0.0040 ca         1 5G0      -0.150500
     10 OAQ          0.8240     0.1680     0.1020 os         1 5G0      -0.302100
     11 NAY         -0.2640    -0.7670     0.0350 n2         1 5G0      -0.319700
     12 CAA         -1.4450    -0.2330     0.0850 c2         1 5G0       0.554600
     13 OAL         -1.5620     1.1370     0.2140 os         1 5G0      -0.420600
     14 CAE         -2.5750     1.8300    -0.5560 c6         1 5G0       0.148300
     15 CAF         -2.5810     3.3360    -0.1400 c3         1 5G0       0.168600
     16 OAM         -1.3050     3.9760    -0.3270 oh         1 5G0      -0.642000
     17 CAD         -3.9680     1.1540    -0.4130 c6         1 5G0       0.106300
     18 OAK         -4.4700     1.2290     0.9370 oh         1 5G0      -0.626000
     19 CAC         -3.8200    -0.3310    -0.8470 c6         1 5G0       0.169300
     20 CAB         -2.7600    -1.0490     0.0350 c6         1 5G0       0.059400
     21 NAI         -2.5740    -2.4660    -0.4000 ns         1 5G0      -0.489900
     22 CAG         -1.9890    -3.4600     0.3490 c          1 5G0       0.621100
     23 OAN         -1.6090    -3.2770     1.4950 o          1 5G0      -0.589100
     24 CAH         -1.8700    -4.8060    -0.3520 c3         1 5G0      -0.177100
     25 OAJ         -5.0890    -1.0050    -0.7580 oh         1 5G0      -0.618000
     26 HAO          2.5950     1.5720     0.2060 hn         1 5G0       0.167000
     27 HAT          4.4890     2.8300     0.2900 ha         1 5G0       0.128000
     28 HAX          4.7750    -1.4810    -0.0740 ha         1 5G0       0.128000
     29 HAU          6.9670     2.9790     0.2790 ha         1 5G0       0.112500
     30 HAV          8.3430     0.9100     0.0910 ha         1 5G0       0.114000
     31 HAW          7.2300    -1.3120    -0.0840 ha         1 5G0       0.112500
     32 HAB         -3.1410    -1.0690     1.0650 h1         1 5G0       0.142700
     33 HAE         -2.2820     1.7860    -1.6160 h1         1 5G0       0.064700
     34 HAF1        -3.3480     3.8530    -0.7330 h1         1 5G0       0.031200
     35 HAF2        -2.8820     3.4060     0.9140 h1         1 5G0       0.031200
     36 HAD         -4.6680     1.6530    -1.1000 h1         1 5G0       0.040700
     37 HAM         -1.3890     4.8910     0.0240 ho         1 5G0       0.450000
     38 HAK         -5.2440     0.6220     0.9740 ho         1 5G0       0.448000
     39 HAC         -3.4670    -0.3520    -1.8890 h1         1 5G0       0.033700
     40 HAJ         -5.6010    -0.7690    -1.5640 ho         1 5G0       0.444000
     41 HAI         -2.8900    -2.7290    -1.3270 hn         1 5G0       0.311500
     42 HAH1        -2.8610    -5.1140    -0.7050 hc         1 5G0       0.062367
     43 HAH2        -1.3190    -4.6720    -1.2890 hc         1 5G0       0.062367
     44 HAH3        -1.4110    -5.5730     0.2830 hc         1 5G0       0.062367
@<TRIPOS>BOND
     1     1     2 2   
     2     2     3 1   
     3     2    10 1   
     4     3     4 1   
     5     3    26 1   
     6     4     5 ar  
     7     4     9 ar  
     8     5     6 ar  
     9     5    27 1   
    10     6     7 ar  
    11     6    29 1   
    12     7     8 ar  
    13     7    30 1   
    14     8     9 ar  
    15     8    31 1   
    16     9    28 1   
    17    10    11 1   
    18    11    12 2   
    19    12    13 1   
    20    12    20 1   
    21    13    14 1   
    22    14    15 1   
    23    14    17 1   
    24    14    33 1   
    25    15    16 1   
    26    15    34 1   
    27    15    35 1   
    28    16    37 1   
    29    17    18 1   
    30    17    19 1   
    31    17    36 1   
    32    18    38 1   
    33    19    20 1   
    34    19    25 1   
    35    19    39 1   
    36    20    21 1   
    37    20    32 1   
    38    21    22 1   
    39    21    41 1   
    40    22    23 2   
    41    22    24 1   
    42    24    42 1   
    43    24    43 1   
    44    24    44 1   
    45    25    40 1   
@<TRIPOS>SUBSTRUCTURE
     1 5G0         1 TEMP              0 ****  ****    0 ROOT
