@<TRIPOS>MOLECULE
5G1
   18    18     1     0     0
SMALL
bcc


@<TRIPOS>ATOM
      1 C4          -0.0550    -0.4670     0.2440 ca         1 5G1      -0.151600
      2 C5          -0.4280    -1.7800     0.5210 ca         1 5G1      -0.102000
      3 C6           1.3530    -0.0230     0.5100 c          1 5G1       0.704700
      4 N1           3.6200    -0.5370     0.0320 n8         1 5G1      -0.606800
      5 CL          -0.6180     2.0460    -0.6240 cl         1 5G1      -0.085400
      6 C3          -1.0310     0.4140    -0.2140 ca         1 5G1       0.067400
      7 C2          -2.3410     0.0040    -0.3960 ca         1 5G1      -0.129000
      8 C1          -2.6950    -1.3060    -0.1040 ca         1 5G1      -0.104000
      9 C           -1.7400    -2.2000     0.3550 ca         1 5G1      -0.133000
     10 O            1.6030     0.8990     1.2630 o          1 5G1      -0.537100
     11 N            2.2670    -0.7610    -0.1420 ns         1 5G1      -0.476300
     12 H1           0.3170    -2.4770     0.8830 ha         1 5G1       0.137000
     13 H2           4.0590    -1.3990     0.3300 hn         1 5G1       0.341800
     14 H3           4.0290    -0.2780    -0.8570 hn         1 5G1       0.341800
     15 H4          -3.0820     0.7020    -0.7640 ha         1 5G1       0.151000
     16 H5          -3.7210    -1.6210    -0.2400 ha         1 5G1       0.139000
     17 H6          -2.0120    -3.2210     0.5850 ha         1 5G1       0.139000
     18 H7           1.9570    -1.4620    -0.8010 hn         1 5G1       0.303500
@<TRIPOS>BOND
     1     1     2 ar  
     2     1     3 1   
     3     1     6 ar  
     4     2     9 ar  
     5     2    12 1   
     6     3    10 2   
     7     3    11 1   
     8     4    11 1   
     9     4    13 1   
    10     4    14 1   
    11     5     6 1   
    12     6     7 ar  
    13     7     8 ar  
    14     7    15 1   
    15     8     9 ar  
    16     8    16 1   
    17     9    17 1   
    18    11    18 1   
@<TRIPOS>SUBSTRUCTURE
     1 5G1         1 TEMP              0 ****  ****    0 ROOT
