@<TRIPOS>MOLECULE
5G1
   18    18     1     0     0
SMALL
No Charge or Current Charge


@<TRIPOS>ATOM
      1 C4          -0.0860    -0.3670     0.1310 ca         1 5G1      -0.151600
      2 C5          -0.3820    -1.7490     0.2680 ca         1 5G1      -0.084000
      3 C6           1.3480     0.1140     0.2570 c          1 5G1       0.637700
      4 N1           3.7790    -0.6230     0.0820 n8         1 5G1      -0.717200
      5 Cl          -0.9450     2.2610    -0.3620 cl         1 5G1      -0.177000
      6 C3          -1.1650     0.5270    -0.1110 ca         1 5G1       0.159000
      7 C2          -2.4810     0.0410    -0.2100 ca         1 5G1      -0.111000
      8 C1          -2.7530    -1.3270    -0.0690 ca         1 5G1      -0.086000
      9 C           -1.7020    -2.2210     0.1690 ca         1 5G1      -0.115000
     10 O            1.6530     1.2440     0.6200 o          1 5G1      -0.537100
     11 N            2.3360    -0.8440    -0.0110 ns         1 5G1      -0.409300
     12 H1           0.4020    -2.4740     0.4770 ha         1 5G1       0.119000
     13 H2           4.2190    -1.2730     0.7510 hn         1 5G1       0.397000
     14 H3           4.2450    -0.7770    -0.8260 hn         1 5G1       0.397000
     15 H4          -3.2970     0.7340    -0.4040 ha         1 5G1       0.133000
     16 H5          -3.7750    -1.6930    -0.1470 ha         1 5G1       0.121000
     17 H6          -1.9090    -3.2830     0.2830 ha         1 5G1       0.121000
     18 H7           1.9960    -1.7570    -0.3160 hn         1 5G1       0.303500
@<TRIPOS>BOND
     1     1     2 ar  
     2     1     3 1   
     3     1     6 ar  
     4     2     9 ar  
     5     2    12 1   
     6     3    10 2   
     7     3    11 1   
     8     4    11 1   
     9     4    13 1   
    10     4    14 1   
    11     5     6 1   
    12     6     7 ar  
    13     7     8 ar  
    14     7    15 1   
    15     8     9 ar  
    16     8    16 1   
    17     9    17 1   
    18    11    18 1   
@<TRIPOS>SUBSTRUCTURE
     1 5G1         1 TEMP              0 ****  ****    0 ROOT
