@<TRIPOS>MOLECULE
5G2
   33    35     1     0     0
SMALL
No Charge or Current Charge


@<TRIPOS>ATOM
      1 C01          2.2580     1.2590    -0.3180 ce         1 5G2      -0.334100
      2 C02          1.0180     0.7160    -0.1870 cf         1 5G2       0.085300
      3 C03          1.0470    -0.7200     0.1530 cf         1 5G2       0.085300
      4 C04          2.3060    -1.2270     0.2270 ce         1 5G2      -0.334100
      5 C05         -0.2520     1.4480    -0.3660 ca         1 5G2      -0.108800
      6 C06         -0.1930    -1.4880     0.3880 ca         1 5G2      -0.108800
      7 C07         -0.5410     2.6230     0.3650 ca         1 5G2       0.178000
      8 C08         -1.7580     3.2960     0.1700 ca         1 5G2      -0.152000
      9 S01          3.4940     0.0330    -0.0730 sy         1 5G2       0.973200
     10 C09         -2.6940     2.8110    -0.7500 ca         1 5G2       0.167100
     11 C10         -2.4180     1.6470    -1.4820 ca         1 5G2      -0.211500
     12 C11         -1.2020     0.9690    -1.2910 ca         1 5G2      -0.030000
     13 C12         -0.4800    -2.6720    -0.3290 ca         1 5G2       0.178000
     14 C13         -1.6670    -3.3800    -0.0810 ca         1 5G2      -0.152000
     15 C14         -2.5740    -2.9210     0.8820 ca         1 5G2       0.167100
     16 O03          4.2360     0.3180     1.1610 o          1 5G2      -0.504000
     17 C15         -2.3000    -1.7500     1.6010 ca         1 5G2      -0.211500
     18 C16         -1.1140    -1.0360     1.3560 ca         1 5G2      -0.030000
     19 O04          4.1880    -0.2300    -1.3390 o          1 5G2      -0.504000
     20 Cl1          0.5800     3.2550     1.5710 cl         1 5G2      -0.179000
     21 Cl2          0.6030    -3.2720    -1.5860 cl         1 5G2      -0.179000
     22 H1           2.5580     2.2750    -0.5660 h4         1 5G2       0.250000
     23 H2          -4.3940     2.9920    -1.6070 ho         1 5G2       0.473000
     24 H3           2.6470    -2.2340     0.4610 h4         1 5G2       0.250000
     25 H4          -1.9760     4.1940     0.7410 ha         1 5G2       0.149000
     26 H5          -4.2280    -3.1510     1.8140 ho         1 5G2       0.473000
     27 H6          -3.1380     1.2620    -2.2000 ha         1 5G2       0.125000
     28 H7          -0.9940     0.0710    -1.8700 ha         1 5G2       0.129000
     29 H8          -1.8840    -4.2840    -0.6420 ha         1 5G2       0.149000
     30 H9          -2.9970    -1.3850     2.3510 ha         1 5G2       0.125000
     31 H10         -0.9060    -0.1320     1.9250 ha         1 5G2       0.129000
     32 O02         -3.7220    -3.6150     1.1140 oh         1 5G2      -0.523100
     33 O01         -3.8710     3.4710    -0.9300 oh         1 5G2      -0.523100
@<TRIPOS>BOND
     1     1     2 2   
     2     1     9 1   
     3     1    22 1   
     4     2     3 1   
     5     2     5 1   
     6     3     4 2   
     7     3     6 1   
     8     4     9 1   
     9     4    24 1   
    10     5     7 ar  
    11     5    12 ar  
    12     6    13 ar  
    13     6    18 ar  
    14     7     8 ar  
    15     7    20 1   
    16     8    10 ar  
    17     8    25 1   
    18     9    16 2   
    19     9    19 2   
    20    10    11 ar  
    21    10    33 1   
    22    11    12 ar  
    23    11    27 1   
    24    12    28 1   
    25    13    14 ar  
    26    13    21 1   
    27    14    15 ar  
    28    14    29 1   
    29    15    17 ar  
    30    15    32 1   
    31    17    18 ar  
    32    17    30 1   
    33    18    31 1   
    34    23    33 1   
    35    26    32 1   
@<TRIPOS>SUBSTRUCTURE
     1 5G2         1 TEMP              0 ****  ****    0 ROOT
