@<TRIPOS>MOLECULE
5G2
   33    35     1     0     0
SMALL
abcg2


@<TRIPOS>ATOM
      1 C01          2.2370     1.2710    -0.2930 ce         1 5G2      -0.334100
      2 C02          1.0250     0.7350    -0.1690 cf         1 5G2       0.085300
      3 C03          1.0540    -0.7380     0.1350 cf         1 5G2       0.085300
      4 C04          2.2850    -1.2390     0.2020 ce         1 5G2      -0.334100
      5 C05         -0.2400     1.4530    -0.3500 ca         1 5G2      -0.108800
      6 C06         -0.1800    -1.4940     0.3740 ca         1 5G2      -0.108800
      7 C07         -0.5820     2.6040     0.3600 ca         1 5G2       0.178000
      8 C08         -1.7840     3.2580     0.1610 ca         1 5G2      -0.152000
      9 S01          3.4770     0.0340    -0.0710 sy         1 5G2       0.973200
     10 C09         -2.6860     2.7680    -0.7800 ca         1 5G2       0.167100
     11 C10         -2.3710     1.6200    -1.5050 ca         1 5G2      -0.211500
     12 C11         -1.1700     0.9790    -1.2770 ca         1 5G2      -0.030000
     13 C12         -0.5240    -2.6500    -0.3280 ca         1 5G2       0.178000
     14 C13         -1.6970    -3.3380    -0.0770 ca         1 5G2      -0.152000
     15 C14         -2.5650    -2.8790     0.9100 ca         1 5G2       0.167100
     16 O03          4.2500     0.2650     1.1430 o          1 5G2      -0.504000
     17 C15         -2.2470    -1.7290     1.6290 ca         1 5G2      -0.211500
     18 C16         -1.0760    -1.0530     1.3490 ca         1 5G2      -0.030000
     19 O04          4.2100    -0.1750    -1.3130 o          1 5G2      -0.504000
     20 CL1          0.4780     3.2370     1.5730 cl         1 5G2      -0.179000
     21 CL2          0.4930    -3.2440    -1.5960 cl         1 5G2      -0.179000
     22 H1           2.5140     2.2830    -0.5460 h4         1 5G2       0.250000
     23 H2          -4.3930     3.0070    -1.5980 ho         1 5G2       0.473000
     24 H3           2.6010    -2.2430     0.4430 h4         1 5G2       0.250000
     25 H4          -2.0280     4.1440     0.7320 ha         1 5G2       0.149000
     26 H5          -4.2290    -3.1630     1.7970 ho         1 5G2       0.473000
     27 H6          -3.0600     1.2250    -2.2410 ha         1 5G2       0.125000
     28 H7          -0.9390     0.0900    -1.8490 ha         1 5G2       0.129000
     29 H8          -1.9450    -4.2250    -0.6450 ha         1 5G2       0.149000
     30 H9          -2.9100    -1.3580     2.4010 ha         1 5G2       0.125000
     31 H10         -0.8420    -0.1620     1.9170 ha         1 5G2       0.129000
     32 O02         -3.6880    -3.5790     1.1160 oh         1 5G2      -0.523100
     33 O01         -3.8340     3.4390    -0.9410 oh         1 5G2      -0.523100
@<TRIPOS>BOND
     1     1     2 2   
     2     1     9 1   
     3     1    22 1   
     4     2     3 1   
     5     2     5 1   
     6     3     4 2   
     7     3     6 1   
     8     4     9 1   
     9     4    24 1   
    10     5     7 ar  
    11     5    12 ar  
    12     6    13 ar  
    13     6    18 ar  
    14     7     8 ar  
    15     7    20 1   
    16     8    10 ar  
    17     8    25 1   
    18     9    16 2   
    19     9    19 2   
    20    10    11 ar  
    21    10    33 1   
    22    11    12 ar  
    23    11    27 1   
    24    12    28 1   
    25    13    14 ar  
    26    13    21 1   
    27    14    15 ar  
    28    14    29 1   
    29    15    17 ar  
    30    15    32 1   
    31    17    18 ar  
    32    17    30 1   
    33    18    31 1   
    34    23    33 1   
    35    26    32 1   
@<TRIPOS>SUBSTRUCTURE
     1 5G2         1 TEMP              0 ****  ****    0 ROOT
