@<TRIPOS>MOLECULE
5G3
   38    40     1     0     0
SMALL
abcg2


@<TRIPOS>ATOM
      1 O01          2.4920     4.6640    -0.7730 oh         1 5G3      -0.529100
      2 C02          1.7460     3.5760    -0.5130 ca         1 5G3       0.156100
      3 C03          0.8130     3.5270     0.5190 ca         1 5G3      -0.181500
      4 C04          0.0740     2.3750     0.7280 ca         1 5G3      -0.042500
      5 C05          0.2600     1.2530    -0.0720 ca         1 5G3      -0.235900
      6 C06         -0.4750    -0.0100     0.1780 ce         1 5G3       0.628500
      7 C07         -1.9290    -0.0360     0.0730 ca         1 5G3      -0.322900
      8 C08         -2.6490     1.0800    -0.3710 ca         1 5G3       0.011000
      9 C09         -4.0210     1.0840    -0.4630 ca         1 5G3      -0.271000
     10 C10         -4.7290    -0.0680    -0.1040 ca         1 5G3       0.209100
     11 O11         -6.0670    -0.1340    -0.1610 oh         1 5G3      -0.526100
     12 C12         -4.0530    -1.2020     0.3180 ca         1 5G3      -0.229000
     13 C13         -2.6640    -1.2060     0.3970 ca         1 5G3       0.258100
     14 O14         -2.0710    -2.3290     0.7760 oh         1 5G3      -0.549100
     15 N15          0.1360    -1.1060     0.4650 nf         1 5G3      -0.660100
     16 C16          1.5090    -1.1770     0.6920 ca         1 5G3       0.160400
     17 C17          2.2970    -2.0070    -0.1040 ca         1 5G3       0.111000
     18 CL1          1.5650    -2.8120    -1.4490 cl         1 5G3      -0.191000
     19 C19          3.6510    -2.1680     0.1370 ca         1 5G3      -0.093000
     20 C20          4.2400    -1.4990     1.1980 ca         1 5G3      -0.111000
     21 C21          3.4720    -0.6730     2.0060 ca         1 5G3      -0.095000
     22 C22          2.1200    -0.5140     1.7550 ca         1 5G3      -0.115000
     23 C23          1.2020     1.3100    -1.0960 ca         1 5G3      -0.042500
     24 C24          1.9330     2.4590    -1.3240 ca         1 5G3      -0.181500
     25 H1           2.2670     5.3850    -0.1790 ho         1 5G3       0.468000
     26 H2           0.6570     4.3810     1.1660 ha         1 5G3       0.126000
     27 H3          -0.6440     2.3550     1.5380 ha         1 5G3       0.125000
     28 H5          -2.1150     1.9730    -0.6660 ha         1 5G3       0.117000
     29 H6          -4.5360     1.9680    -0.8170 ha         1 5G3       0.117000
     30 H7          -6.4380     0.7000    -0.4610 ho         1 5G3       0.468000
     31 H8          -4.6030    -2.0970     0.5800 ha         1 5G3       0.147000
     32 H9          -1.0860    -2.1730     0.7210 ho         1 5G3       0.532000
     33 H11          4.2410    -2.8130    -0.4990 ha         1 5G3       0.130000
     34 H12          5.2960    -1.6280     1.3910 ha         1 5G3       0.119000
     35 H13          3.9250    -0.1510     2.8370 ha         1 5G3       0.118000
     36 H14          1.5180     0.1210     2.3910 ha         1 5G3       0.122000
     37 H15          1.3610     0.4480    -1.7320 ha         1 5G3       0.125000
     38 H16          2.6570     2.4960    -2.1280 ha         1 5G3       0.126000
@<TRIPOS>BOND
     1     1     2 1   
     2     1    25 1   
     3     2     3 ar  
     4     2    24 ar  
     5     3     4 ar  
     6     3    26 1   
     7     4     5 ar  
     8     4    27 1   
     9     5     6 1   
    10     5    23 ar  
    11     6     7 1   
    12     6    15 2   
    13     7     8 ar  
    14     7    13 ar  
    15     8     9 ar  
    16     8    28 1   
    17     9    10 ar  
    18     9    29 1   
    19    10    11 1   
    20    10    12 ar  
    21    11    30 1   
    22    12    13 ar  
    23    12    31 1   
    24    13    14 1   
    25    14    32 1   
    26    15    16 1   
    27    16    17 ar  
    28    16    22 ar  
    29    17    18 1   
    30    17    19 ar  
    31    19    20 ar  
    32    19    33 1   
    33    20    21 ar  
    34    20    34 1   
    35    21    22 ar  
    36    21    35 1   
    37    22    36 1   
    38    23    24 ar  
    39    23    37 1   
    40    24    38 1   
@<TRIPOS>SUBSTRUCTURE
     1 5G3         1 TEMP              0 ****  ****    0 ROOT
