@<TRIPOS>MOLECULE
5G3
   38    40     1     0     0
SMALL
No Charge or Current Charge


@<TRIPOS>ATOM
      1 O01          2.4680     4.8450    -0.9290 oh         1 5G3      -0.529100
      2 C02          1.7700     3.6860    -0.7710 ca         1 5G3       0.156100
      3 C03          0.8060     3.5710     0.2420 ca         1 5G3      -0.181500
      4 C04          0.0920     2.3710     0.4000 ca         1 5G3      -0.042500
      5 C05          0.3250     1.2800    -0.4660 ca         1 5G3      -0.235900
      6 C06         -0.3940    -0.0170    -0.2570 ce         1 5G3       0.628500
      7 C07         -1.8780    -0.0230    -0.0210 ca         1 5G3      -0.322900
      8 C08         -2.6590     1.0730    -0.4560 ca         1 5G3       0.011000
      9 C09         -4.0500     1.0820    -0.2620 ca         1 5G3      -0.271000
     10 C10         -4.6800    -0.0060     0.3480 ca         1 5G3       0.209100
     11 O11         -6.0260     0.0020     0.5360 oh         1 5G3      -0.526100
     12 C12         -3.9290    -1.1110     0.7490 ca         1 5G3      -0.229000
     13 C13         -2.5440    -1.1290     0.5550 ca         1 5G3       0.258100
     14 O14         -1.8590    -2.2380     0.9330 oh         1 5G3      -0.549100
     15 N15          0.2690    -1.1500    -0.2860 nf         1 5G3      -0.660100
     16 C16          1.5180    -1.3280     0.3690 ca         1 5G3       0.160400
     17 C17          2.6550    -1.7970    -0.3310 ca         1 5G3       0.111000
     18 Cl1          2.5710    -2.1990    -2.0500 cl         1 5G3      -0.191000
     19 C19          3.8790    -1.9590     0.3410 ca         1 5G3      -0.093000
     20 C20          3.9790    -1.6600     1.7100 ca         1 5G3      -0.111000
     21 C21          2.8510    -1.2010     2.4120 ca         1 5G3      -0.095000
     22 C22          1.6240    -1.0380     1.7440 ca         1 5G3      -0.115000
     23 C23          1.3160     1.3990    -1.4640 ca         1 5G3      -0.042500
     24 C24          2.0270     2.6010    -1.6190 ca         1 5G3      -0.181500
     25 H1           2.1600     5.4870    -0.2540 ho         1 5G3       0.468000
     26 H2           0.6080     4.4030     0.9130 ha         1 5G3       0.126000
     27 H3          -0.6400     2.2870     1.2030 ha         1 5G3       0.125000
     28 H5          -2.2000     1.9250    -0.9540 ha         1 5G3       0.117000
     29 H6          -4.6290     1.9400    -0.5950 ha         1 5G3       0.117000
     30 H7          -6.3740     0.8500     0.1890 ho         1 5G3       0.468000
     31 H8          -4.4220    -1.9640     1.2050 ha         1 5G3       0.147000
     32 H9          -0.9500    -2.1240     0.5510 ho         1 5G3       0.532000
     33 H11          4.7510    -2.3190    -0.2010 ha         1 5G3       0.130000
     34 H12          4.9270    -1.7860     2.2280 ha         1 5G3       0.119000
     35 H13          2.9270    -0.9710     3.4730 ha         1 5G3       0.118000
     36 H14          0.7590    -0.6820     2.2970 ha         1 5G3       0.122000
     37 H15          1.5270     0.5640    -2.1300 ha         1 5G3       0.125000
     38 H16          2.7810     2.6880    -2.3970 ha         1 5G3       0.126000
@<TRIPOS>BOND
     1     1     2 1   
     2     1    25 1   
     3     2     3 ar  
     4     2    24 ar  
     5     3     4 ar  
     6     3    26 1   
     7     4     5 ar  
     8     4    27 1   
     9     5     6 1   
    10     5    23 ar  
    11     6     7 1   
    12     6    15 2   
    13     7     8 ar  
    14     7    13 ar  
    15     8     9 ar  
    16     8    28 1   
    17     9    10 ar  
    18     9    29 1   
    19    10    11 1   
    20    10    12 ar  
    21    11    30 1   
    22    12    13 ar  
    23    12    31 1   
    24    13    14 1   
    25    14    32 1   
    26    15    16 1   
    27    16    17 ar  
    28    16    22 ar  
    29    17    18 1   
    30    17    19 ar  
    31    19    20 ar  
    32    19    33 1   
    33    20    21 ar  
    34    20    34 1   
    35    21    22 ar  
    36    21    35 1   
    37    22    36 1   
    38    23    24 ar  
    39    23    37 1   
    40    24    38 1   
@<TRIPOS>SUBSTRUCTURE
     1 5G3         1 TEMP              0 ****  ****    0 ROOT
