@<TRIPOS>MOLECULE
5G4
   41    43     1     0     0
SMALL
No Charge or Current Charge


@<TRIPOS>ATOM
      1 O01          2.6270     4.7220    -0.2870 oh         1 5G4      -0.531100
      2 C02          1.9280     3.5530    -0.2780 ca         1 5G4       0.151100
      3 C03          0.7820     3.4360     0.5190 ca         1 5G4      -0.183500
      4 C04          0.0530     2.2350     0.5390 ca         1 5G4      -0.043500
      5 C05          0.4570     1.1380    -0.2540 ca         1 5G4      -0.228900
      6 C06         -0.3100    -0.1550    -0.1890 ce         1 5G4       0.574500
      7 C07         -1.7890    -0.0740    -0.0040 ca         1 5G4      -0.218900
      8 C08         -2.5330     0.8250    -0.7970 ca         1 5G4      -0.009000
      9 C09         -3.9280     0.9060    -0.6580 ca         1 5G4      -0.255000
     10 C10         -4.5870     0.0900     0.2680 ca         1 5G4       0.197100
     11 O11         -5.9360     0.1650     0.4070 oh         1 5G4      -0.529100
     12 C12         -3.8590    -0.8050     1.0590 ca         1 5G4      -0.268000
     13 C13         -2.4650    -0.8910     0.9240 ca         1 5G4       0.221100
     14 O14         -1.7820    -1.7460     1.7340 oh         1 5G4      -0.500100
     15 N15          0.2420    -1.2970    -0.5210 nf         1 5G4      -0.564100
     16 C16          1.4560    -1.7770     0.0360 ca         1 5G4       0.144400
     17 C17          2.4030    -2.4420    -0.7800 ca         1 5G4      -0.077300
     18 C18          2.1420    -2.6760    -2.2660 c3         1 5G4      -0.040800
     19 C19          3.6070    -2.9030    -0.2070 ca         1 5G4      -0.104000
     20 C20          3.8660    -2.7110     1.1600 ca         1 5G4      -0.122000
     21 C21          2.9230    -2.0590     1.9690 ca         1 5G4      -0.103000
     22 C22          1.7210    -1.5960     1.4090 ca         1 5G4      -0.123000
     23 C23          1.6270     1.2620    -1.0390 ca         1 5G4      -0.043500
     24 C24          2.3520     2.4660    -1.0550 ca         1 5G4      -0.183500
     25 H1           3.3910     4.6200    -0.8940 ho         1 5G4       0.467000
     26 H2           0.4580     4.2760     1.1290 ha         1 5G4       0.123000
     27 H3          -0.8250     2.1610     1.1780 ha         1 5G4       0.122000
     28 H4          -2.0300     1.4570    -1.5280 ha         1 5G4       0.122000
     29 H5          -4.4880     1.6030    -1.2770 ha         1 5G4       0.119000
     30 H6          -6.2680     0.8390    -0.2220 ho         1 5G4       0.469000
     31 H7          -4.3840    -1.4260     1.7790 ha         1 5G4       0.130000
     32 H8          -2.4330    -2.2250     2.2880 ho         1 5G4       0.465000
     33 H9           2.0270    -1.7270    -2.8030 hc         1 5G4       0.043033
     34 H10          2.9620    -3.2250    -2.7430 hc         1 5G4       0.043033
     35 H11          1.2260    -3.2600    -2.4170 hc         1 5G4       0.043033
     36 H12          4.3440    -3.4150    -0.8220 ha         1 5G4       0.109000
     37 H13          4.7970    -3.0700     1.5920 ha         1 5G4       0.111000
     38 H14          3.1220    -1.9130     3.0280 ha         1 5G4       0.111000
     39 H15          0.9970    -1.0950     2.0460 ha         1 5G4       0.119000
     40 H16          1.9740     0.4330    -1.6510 ha         1 5G4       0.122000
     41 H17          3.2440     2.5440    -1.6720 ha         1 5G4       0.123000
@<TRIPOS>BOND
     1     1     2 1   
     2     1    25 1   
     3     2     3 ar  
     4     2    24 ar  
     5     3     4 ar  
     6     3    26 1   
     7     4     5 ar  
     8     4    27 1   
     9     5     6 1   
    10     5    23 ar  
    11     6     7 1   
    12     6    15 2   
    13     7     8 ar  
    14     7    13 ar  
    15     8     9 ar  
    16     8    28 1   
    17     9    10 ar  
    18     9    29 1   
    19    10    11 1   
    20    10    12 ar  
    21    11    30 1   
    22    12    13 ar  
    23    12    31 1   
    24    13    14 1   
    25    14    32 1   
    26    15    16 1   
    27    16    17 ar  
    28    16    22 ar  
    29    17    18 1   
    30    17    19 ar  
    31    18    33 1   
    32    18    34 1   
    33    18    35 1   
    34    19    20 ar  
    35    19    36 1   
    36    20    21 ar  
    37    20    37 1   
    38    21    22 ar  
    39    21    38 1   
    40    22    39 1   
    41    23    24 ar  
    42    23    40 1   
    43    24    41 1   
@<TRIPOS>SUBSTRUCTURE
     1 5G4         1 TEMP              0 ****  ****    0 ROOT
