@<TRIPOS>MOLECULE
5G4
   41    43     1     0     0
SMALL
abcg2


@<TRIPOS>ATOM
      1 O01          2.6100     4.5180    -0.0710 oh         1 5G4      -0.531100
      2 C02          1.9300     3.3590    -0.0720 ca         1 5G4       0.151100
      3 C03          0.8800     3.2180     0.8340 ca         1 5G4      -0.183500
      4 C04          0.1480     2.0460     0.8630 ca         1 5G4      -0.043500
      5 C05          0.4540     0.9820     0.0150 ca         1 5G4      -0.228900
      6 C06         -0.3230    -0.2830     0.0790 ce         1 5G4       0.574500
      7 C07         -1.7930    -0.1570     0.0410 ca         1 5G4      -0.218900
      8 C08         -2.3770     0.8340    -0.7500 ca         1 5G4      -0.009000
      9 C09         -3.7440     0.9910    -0.8670 ca         1 5G4      -0.255000
     10 C10         -4.5810     0.1380    -0.1480 ca         1 5G4       0.197100
     11 O11         -5.9190     0.2260    -0.1980 oh         1 5G4      -0.529100
     12 C12         -4.0340    -0.8470     0.6670 ca         1 5G4      -0.268000
     13 C13         -2.6550    -1.0030     0.7630 ca         1 5G4       0.221100
     14 O14         -2.1290    -1.9340     1.5710 oh         1 5G4      -0.500100
     15 N15          0.2000    -1.4450     0.1280 nf         1 5G4      -0.564100
     16 C16          1.5650    -1.6600     0.3010 ca         1 5G4       0.144400
     17 C17          2.2480    -2.4320    -0.6510 ca         1 5G4      -0.077300
     18 C18          1.5350    -2.9170    -1.8770 c3         1 5G4      -0.040800
     19 C19          3.5940    -2.7110    -0.4390 ca         1 5G4      -0.104000
     20 C20          4.2620    -2.2590     0.6930 ca         1 5G4      -0.122000
     21 C21          3.5730    -1.5100     1.6370 ca         1 5G4      -0.103000
     22 C22          2.2330    -1.2110     1.4410 ca         1 5G4      -0.123000
     23 C23          1.5030     1.1360    -0.8870 ca         1 5G4      -0.043500
     24 C24          2.2310     2.3120    -0.9420 ca         1 5G4      -0.183500
     25 H1           3.3130     4.4990    -0.7310 ho         1 5G4       0.467000
     26 H2           0.6400     4.0300     1.5100 ha         1 5G4       0.123000
     27 H3          -0.6700     1.9540     1.5670 ha         1 5G4       0.122000
     28 H4          -1.7320     1.5000    -1.3080 ha         1 5G4       0.122000
     29 H5          -4.1540     1.7660    -1.5020 ha         1 5G4       0.119000
     30 H6          -6.1870     0.9340    -0.7940 ho         1 5G4       0.469000
     31 H7          -4.6960    -1.4940     1.2320 ha         1 5G4       0.130000
     32 H8          -2.8300    -2.3790     2.0610 ho         1 5G4       0.465000
     33 H9           1.1950    -2.0860    -2.5000 hc         1 5G4       0.043033
     34 H10          2.1830    -3.5440    -2.4870 hc         1 5G4       0.043033
     35 H11          0.6460    -3.4940    -1.6170 hc         1 5G4       0.043033
     36 H12          4.1290    -3.2980    -1.1760 ha         1 5G4       0.109000
     37 H13          5.3070    -2.4970     0.8380 ha         1 5G4       0.111000
     38 H14          4.0750    -1.1570     2.5280 ha         1 5G4       0.111000
     39 H15          1.6930    -0.6340     2.1810 ha         1 5G4       0.119000
     40 H16          1.7520     0.3370    -1.5740 ha         1 5G4       0.122000
     41 H17          3.0360     2.4130    -1.6610 ha         1 5G4       0.123000
@<TRIPOS>BOND
     1     1     2 1   
     2     1    25 1   
     3     2     3 ar  
     4     2    24 ar  
     5     3     4 ar  
     6     3    26 1   
     7     4     5 ar  
     8     4    27 1   
     9     5     6 1   
    10     5    23 ar  
    11     6     7 1   
    12     6    15 2   
    13     7     8 ar  
    14     7    13 ar  
    15     8     9 ar  
    16     8    28 1   
    17     9    10 ar  
    18     9    29 1   
    19    10    11 1   
    20    10    12 ar  
    21    11    30 1   
    22    12    13 ar  
    23    12    31 1   
    24    13    14 1   
    25    14    32 1   
    26    15    16 1   
    27    16    17 ar  
    28    16    22 ar  
    29    17    18 1   
    30    17    19 ar  
    31    18    33 1   
    32    18    34 1   
    33    18    35 1   
    34    19    20 ar  
    35    19    36 1   
    36    20    21 ar  
    37    20    37 1   
    38    21    22 ar  
    39    21    38 1   
    40    22    39 1   
    41    23    24 ar  
    42    23    40 1   
    43    24    41 1   
@<TRIPOS>SUBSTRUCTURE
     1 5G4         1 TEMP              0 ****  ****    0 ROOT
