@<TRIPOS>MOLECULE
5G5
   37    39     1     0     0
SMALL
abcg2


@<TRIPOS>ATOM
      1 CL1         -1.6410     2.7720     1.5960 cl         1 5G5      -0.196000
      2 C01         -2.3620     1.9740     0.2360 ca         1 5G5       0.110000
      3 C02         -3.7310     2.0580     0.0400 ca         1 5G5      -0.093000
      4 C03         -4.3090     1.3980    -1.0340 ca         1 5G5      -0.116000
      5 C04         -3.5110     0.6580    -1.8960 ca         1 5G5      -0.095000
      6 C05         -2.1450     0.5730    -1.6860 ca         1 5G5      -0.121000
      7 C06         -1.5410     1.2300    -0.6120 ca         1 5G5       0.155400
      8 N01         -0.1630     1.2400    -0.4340 ne         1 5G5      -0.581100
      9 C07          0.5050     0.1750    -0.2120 cf         1 5G5       0.582500
     10 C08         -0.1220    -1.1430     0.0570 ca         1 5G5      -0.211900
     11 C09         -1.0740    -1.2760     1.0660 ca         1 5G5      -0.037250
     12 C10         -1.6860    -2.4900     1.3130 ca         1 5G5      -0.187000
     13 C11         -1.3670    -3.6010     0.5320 ca         1 5G5       0.156100
     14 O01         -2.0000    -4.7570     0.8010 oh         1 5G5      -0.529600
     15 C12         -0.4180    -3.4800    -0.4800 ca         1 5G5      -0.187000
     16 C13          0.2030    -2.2620    -0.7030 ca         1 5G5      -0.037250
     17 C14          1.9750     0.2690    -0.1970 ca         1 5G5      -0.211900
     18 C15          2.7640    -0.7000     0.4220 ca         1 5G5      -0.037250
     19 C16          4.1440    -0.5890     0.4570 ca         1 5G5      -0.187000
     20 C17          4.7690     0.5030    -0.1390 ca         1 5G5       0.156100
     21 O02          6.1010     0.6640    -0.1450 oh         1 5G5      -0.529600
     22 C18          3.9930     1.4840    -0.7630 ca         1 5G5      -0.187000
     23 C19          2.6200     1.3640    -0.7840 ca         1 5G5      -0.037250
     24 H1          -4.3390     2.6340     0.7250 ha         1 5G5       0.128000
     25 H2          -5.3770     1.4670    -1.1940 ha         1 5G5       0.118000
     26 H3          -3.9540     0.1430    -2.7390 ha         1 5G5       0.116000
     27 H4          -1.5250     0.0000    -2.3640 ha         1 5G5       0.121000
     28 H5          -1.3310    -0.4260     1.6860 ha         1 5G5       0.126750
     29 H6          -2.4150    -2.5830     2.1090 ha         1 5G5       0.124000
     30 H7          -1.7020    -5.4540     0.2050 ho         1 5G5       0.467000
     31 H8          -0.1600    -4.3350    -1.0960 ha         1 5G5       0.124000
     32 H9           0.9400    -2.1870    -1.4930 ha         1 5G5       0.126750
     33 H10          2.3040    -1.5520     0.9030 ha         1 5G5       0.126750
     34 H11          4.7310    -1.3540     0.9520 ha         1 5G5       0.124000
     35 H12          6.5360    -0.0760     0.2940 ho         1 5G5       0.467000
     36 H13          4.4760     2.3320    -1.2300 ha         1 5G5       0.124000
     37 H14          2.0310     2.1300    -1.2700 ha         1 5G5       0.126750
@<TRIPOS>BOND
     1     1     2 1   
     2     2     3 ar  
     3     2     7 ar  
     4     3     4 ar  
     5     3    24 1   
     6     4     5 ar  
     7     4    25 1   
     8     5     6 ar  
     9     5    26 1   
    10     6     7 ar  
    11     6    27 1   
    12     7     8 1   
    13     8     9 2   
    14     9    10 1   
    15     9    17 1   
    16    10    11 ar  
    17    10    16 ar  
    18    11    12 ar  
    19    11    28 1   
    20    12    13 ar  
    21    12    29 1   
    22    13    14 1   
    23    13    15 ar  
    24    14    30 1   
    25    15    16 ar  
    26    15    31 1   
    27    16    32 1   
    28    17    18 ar  
    29    17    23 ar  
    30    18    19 ar  
    31    18    33 1   
    32    19    20 ar  
    33    19    34 1   
    34    20    21 1   
    35    20    22 ar  
    36    21    35 1   
    37    22    23 ar  
    38    22    36 1   
    39    23    37 1   
@<TRIPOS>SUBSTRUCTURE
     1 5G5         1 TEMP              0 ****  ****    0 ROOT
