@<TRIPOS>MOLECULE
5G5
   37    39     1     0     0
SMALL
No Charge or Current Charge


@<TRIPOS>ATOM
      1 Cl1         -2.8680     1.8600     2.1400 cl         1 5G5      -0.196000
      2 C01         -2.7510     1.6700     0.3870 ca         1 5G5       0.110000
      3 C02         -3.9130     1.8410    -0.3870 ca         1 5G5      -0.093000
      4 C03         -3.8570     1.7090    -1.7840 ca         1 5G5      -0.116000
      5 C04         -2.6370     1.4080    -2.4120 ca         1 5G5      -0.095000
      6 C05         -1.4730     1.2370    -1.6420 ca         1 5G5      -0.121000
      7 C06         -1.5180     1.3610    -0.2380 ca         1 5G5       0.155400
      8 N01         -0.3390     1.1790     0.5190 ne         1 5G5      -0.581100
      9 C07          0.3980     0.1110     0.3850 cf         1 5G5       0.582500
     10 C08         -0.1700    -1.2410     0.6130 ca         1 5G5      -0.211900
     11 C09         -1.0910    -1.4630     1.6600 ca         1 5G5      -0.037250
     12 C10         -1.6720    -2.7300     1.8400 ca         1 5G5      -0.187000
     13 C11         -1.3560    -3.7800     0.9690 ca         1 5G5       0.156100
     14 O01         -1.9270    -5.0030     1.1530 oh         1 5G5      -0.529600
     15 C12         -0.4640    -3.5660    -0.0910 ca         1 5G5      -0.187000
     16 C13          0.1200    -2.3010    -0.2760 ca         1 5G5      -0.037250
     17 C14          1.8220     0.2120    -0.0340 ca         1 5G5      -0.211900
     18 C15          2.7710    -0.7490     0.3860 ca         1 5G5      -0.037250
     19 C16          4.1240    -0.6240     0.0240 ca         1 5G5      -0.187000
     20 C17          4.5500     0.4710    -0.7410 ca         1 5G5       0.156100
     21 O02          5.8590     0.5980    -1.0930 oh         1 5G5      -0.529600
     22 C18          3.6270     1.4470    -1.1350 ca         1 5G5      -0.187000
     23 C19          2.2730     1.3280    -0.7760 ca         1 5G5      -0.037250
     24 H1          -4.8560     2.0780     0.0990 ha         1 5G5       0.128000
     25 H2          -4.7580     1.8420    -2.3800 ha         1 5G5       0.118000
     26 H3          -2.5930     1.3080    -3.4940 ha         1 5G5       0.116000
     27 H4          -0.5360     1.0060    -2.1410 ha         1 5G5       0.121000
     28 H5          -1.3480    -0.6570     2.3450 ha         1 5G5       0.126750
     29 H6          -2.3710    -2.8930     2.6560 ha         1 5G5       0.124000
     30 H7          -1.5940    -5.6070     0.4560 ho         1 5G5       0.467000
     31 H8          -0.2230    -4.3710    -0.7810 ha         1 5G5       0.124000
     32 H9           0.7930    -2.1440    -1.1170 ha         1 5G5       0.126750
     33 H10          2.4690    -1.5950     1.0010 ha         1 5G5       0.126750
     34 H11          4.8360    -1.3790     0.3500 ha         1 5G5       0.124000
     35 H12          6.3530    -0.1680    -0.7310 ho         1 5G5       0.467000
     36 H13          3.9590     2.3030    -1.7170 ha         1 5G5       0.124000
     37 H14          1.5760     2.1050    -1.0870 ha         1 5G5       0.126750
@<TRIPOS>BOND
     1     1     2 1   
     2     2     3 ar  
     3     2     7 ar  
     4     3     4 ar  
     5     3    24 1   
     6     4     5 ar  
     7     4    25 1   
     8     5     6 ar  
     9     5    26 1   
    10     6     7 ar  
    11     6    27 1   
    12     7     8 1   
    13     8     9 2   
    14     9    10 1   
    15     9    17 1   
    16    10    11 ar  
    17    10    16 ar  
    18    11    12 ar  
    19    11    28 1   
    20    12    13 ar  
    21    12    29 1   
    22    13    14 1   
    23    13    15 ar  
    24    14    30 1   
    25    15    16 ar  
    26    15    31 1   
    27    16    32 1   
    28    17    18 ar  
    29    17    23 ar  
    30    18    19 ar  
    31    18    33 1   
    32    19    20 ar  
    33    19    34 1   
    34    20    21 1   
    35    20    22 ar  
    36    21    35 1   
    37    22    23 ar  
    38    22    36 1   
    39    23    37 1   
@<TRIPOS>SUBSTRUCTURE
     1 5G5         1 TEMP              0 ****  ****    0 ROOT
