@<TRIPOS>MOLECULE
5G6
   37    39     1     0     0
SMALL
abcg2


@<TRIPOS>ATOM
      1 O01          2.7670     4.2240     0.0210 oh         1 5G6      -0.530100
      2 C02          1.9920     3.1260     0.0050 ca         1 5G6       0.154600
      3 C03          2.2290     2.1500     0.9720 ca         1 5G6      -0.187000
      4 C04          1.4680     0.9970     0.9890 ca         1 5G6      -0.038250
      5 C05          0.4440     0.7940     0.0650 ca         1 5G6      -0.208900
      6 C06         -0.3600    -0.4530     0.0850 ce         1 5G6       0.572500
      7 C07         -1.8310    -0.3260     0.1070 ca         1 5G6      -0.208900
      8 C08         -2.6370    -1.3850    -0.3170 ca         1 5G6      -0.038250
      9 C09         -4.0150    -1.2950    -0.2870 ca         1 5G6      -0.187000
     10 C10         -4.6290    -0.1330     0.1850 ca         1 5G6       0.154600
     11 O11         -5.9620     0.0100     0.2370 oh         1 5G6      -0.530100
     12 C12         -3.8400     0.9290     0.6200 ca         1 5G6      -0.187000
     13 C13         -2.4610     0.8290     0.5740 ca         1 5G6      -0.038250
     14 N14          0.1350    -1.6300     0.1060 nf         1 5G6      -0.590100
     15 C15          1.4990    -1.8840    -0.0420 ca         1 5G6       0.141400
     16 C16          2.2190    -1.4620    -1.1620 ca         1 5G6      -0.118000
     17 C17          3.5570    -1.7960    -1.3000 ca         1 5G6      -0.101000
     18 C18          4.2030    -2.5460    -0.3250 ca         1 5G6      -0.121000
     19 C19          3.4870    -2.9780     0.7850 ca         1 5G6      -0.101000
     20 C20          2.1430    -2.6640     0.9200 ca         1 5G6      -0.118000
     21 C21          0.2040     1.7840    -0.8830 ca         1 5G6      -0.038250
     22 C22          0.9730     2.9360    -0.9270 ca         1 5G6      -0.187000
     23 H1           2.5030     4.8360    -0.6750 ho         1 5G6       0.467500
     24 H2           3.0120     2.2980     1.7060 ha         1 5G6       0.123500
     25 H3           1.6670     0.2490     1.7460 ha         1 5G6       0.125500
     26 H5          -2.1750    -2.2900    -0.6870 ha         1 5G6       0.125500
     27 H6          -4.6150    -2.1280    -0.6350 ha         1 5G6       0.123500
     28 H7          -6.4020    -0.7830    -0.0900 ho         1 5G6       0.467500
     29 H8          -4.3080     1.8300     0.9960 ha         1 5G6       0.123500
     30 H9          -1.8720     1.6660     0.9270 ha         1 5G6       0.125500
     31 H11          1.7250    -0.8810    -1.9310 ha         1 5G6       0.119500
     32 H12          4.1000    -1.4640    -2.1760 ha         1 5G6       0.111500
     33 H13          5.2490    -2.8010    -0.4350 ha         1 5G6       0.113000
     34 H14          3.9760    -3.5700     1.5480 ha         1 5G6       0.111500
     35 H15          1.5840    -3.0140     1.7790 ha         1 5G6       0.119500
     36 H16         -0.5860     1.6570    -1.6130 ha         1 5G6       0.125500
     37 H17          0.7780     3.6840    -1.6850 ha         1 5G6       0.123500
@<TRIPOS>BOND
     1     1     2 1   
     2     1    23 1   
     3     2     3 ar  
     4     2    22 ar  
     5     3     4 ar  
     6     3    24 1   
     7     4     5 ar  
     8     4    25 1   
     9     5     6 1   
    10     5    21 ar  
    11     6     7 1   
    12     6    14 2   
    13     7     8 ar  
    14     7    13 ar  
    15     8     9 ar  
    16     8    26 1   
    17     9    10 ar  
    18     9    27 1   
    19    10    11 1   
    20    10    12 ar  
    21    11    28 1   
    22    12    13 ar  
    23    12    29 1   
    24    13    30 1   
    25    14    15 1   
    26    15    16 ar  
    27    15    20 ar  
    28    16    17 ar  
    29    16    31 1   
    30    17    18 ar  
    31    17    32 1   
    32    18    19 ar  
    33    18    33 1   
    34    19    20 ar  
    35    19    34 1   
    36    20    35 1   
    37    21    22 ar  
    38    21    36 1   
    39    22    37 1   
@<TRIPOS>SUBSTRUCTURE
     1 5G6         1 TEMP              0 ****  ****    0 ROOT
