@<TRIPOS>MOLECULE
5G6
   37    39     1     0     0
SMALL
No Charge or Current Charge


@<TRIPOS>ATOM
      1 O01          2.8560     4.5110     0.3600 oh         1 5G6      -0.530100
      2 C02          2.1010     3.3790     0.4230 ca         1 5G6       0.154600
      3 C03          2.3250     2.4520     1.4490 ca         1 5G6      -0.187000
      4 C04          1.5540     1.2800     1.5240 ca         1 5G6      -0.038250
      5 C05          0.5320     1.0340     0.5800 ca         1 5G6      -0.208900
      6 C06         -0.2530    -0.2440     0.6220 ce         1 5G6       0.572500
      7 C07         -1.7070    -0.2380     0.2420 ca         1 5G6      -0.208900
      8 C08         -2.3310    -1.4150    -0.2310 ca         1 5G6      -0.038250
      9 C09         -3.7020    -1.4220    -0.5440 ca         1 5G6      -0.187000
     10 C10         -4.4690    -0.2610    -0.3680 ca         1 5G6       0.154600
     11 O11         -5.7970    -0.2610    -0.6680 oh         1 5G6      -0.530100
     12 C12         -3.8700     0.9020     0.1320 ca         1 5G6      -0.187000
     13 C13         -2.5000     0.9140     0.4460 ca         1 5G6      -0.038250
     14 N14          0.3260    -1.3600     0.9890 nf         1 5G6      -0.590100
     15 C15          1.4460    -1.8910     0.3110 ca         1 5G6       0.141400
     16 C16          1.3770    -2.1870    -1.0640 ca         1 5G6      -0.118000
     17 C17          2.4990    -2.7090    -1.7310 ca         1 5G6      -0.101000
     18 C18          3.6930    -2.9370    -1.0240 ca         1 5G6      -0.121000
     19 C19          3.7640    -2.6460     0.3490 ca         1 5G6      -0.101000
     20 C20          2.6400    -2.1240     1.0150 ca         1 5G6      -0.118000
     21 C21          0.3360     1.9610    -0.4680 ca         1 5G6      -0.038250
     22 C22          1.1100     3.1330    -0.5380 ca         1 5G6      -0.187000
     23 H1           2.5630     5.0350    -0.4160 ho         1 5G6       0.467500
     24 H2           3.1010     2.6380     2.1870 ha         1 5G6       0.123500
     25 H3           1.7450     0.5680     2.3250 ha         1 5G6       0.125500
     26 H5          -1.7560    -2.3290    -0.3660 ha         1 5G6       0.125500
     27 H6          -4.1600    -2.3340    -0.9190 ha         1 5G6       0.123500
     28 H7          -6.0400    -1.1530    -0.9970 ho         1 5G6       0.467500
     29 H8          -4.4690     1.7960     0.2840 ha         1 5G6       0.123500
     30 H9          -2.0640     1.8230     0.8580 ha         1 5G6       0.125500
     31 H11          0.4570    -2.0110    -1.6160 ha         1 5G6       0.119500
     32 H12          2.4440    -2.9350    -2.7930 ha         1 5G6       0.111500
     33 H13          4.5610    -3.3410    -1.5400 ha         1 5G6       0.113000
     34 H14          4.6870    -2.8240     0.8970 ha         1 5G6       0.111500
     35 H15          2.6970    -1.8990     2.0770 ha         1 5G6       0.119500
     36 H16         -0.4130     1.7730    -1.2360 ha         1 5G6       0.125500
     37 H17          0.9380     3.8380    -1.3480 ha         1 5G6       0.123500
@<TRIPOS>BOND
     1     1     2 1   
     2     1    23 1   
     3     2     3 ar  
     4     2    22 ar  
     5     3     4 ar  
     6     3    24 1   
     7     4     5 ar  
     8     4    25 1   
     9     5     6 1   
    10     5    21 ar  
    11     6     7 1   
    12     6    14 2   
    13     7     8 ar  
    14     7    13 ar  
    15     8     9 ar  
    16     8    26 1   
    17     9    10 ar  
    18     9    27 1   
    19    10    11 1   
    20    10    12 ar  
    21    11    28 1   
    22    12    13 ar  
    23    12    29 1   
    24    13    30 1   
    25    14    15 1   
    26    15    16 ar  
    27    15    20 ar  
    28    16    17 ar  
    29    16    31 1   
    30    17    18 ar  
    31    17    32 1   
    32    18    19 ar  
    33    18    33 1   
    34    19    20 ar  
    35    19    34 1   
    36    20    35 1   
    37    21    22 ar  
    38    21    36 1   
    39    22    37 1   
@<TRIPOS>SUBSTRUCTURE
     1 5G6         1 TEMP              0 ****  ****    0 ROOT
