@<TRIPOS>MOLECULE
5G7
   40    42     1     0     0
SMALL
abcg2


@<TRIPOS>ATOM
      1 O01         -6.0430    -0.1360    -0.0880 oh         1 5G7      -0.530600
      2 C02         -4.7050    -0.2140    -0.0280 ca         1 5G7       0.154100
      3 C03         -4.0380    -1.2970     0.5480 ca         1 5G7      -0.186250
      4 C04         -2.6580    -1.3200     0.5810 ca         1 5G7      -0.039000
      5 C05         -3.9650     0.8380    -0.5640 ca         1 5G7      -0.186250
      6 C06         -2.5830     0.8050    -0.5160 ca         1 5G7      -0.039000
      7 C07         -1.9010    -0.2710     0.0550 ca         1 5G7      -0.207900
      8 C08         -0.4260    -0.3290     0.0810 ce         1 5G7       0.569500
      9 C09          0.3270     0.9400    -0.0870 ca         1 5G7      -0.207900
     10 C10          1.3000     1.0600    -1.0780 ca         1 5G7      -0.039000
     11 C11          2.0210     2.2280    -1.2340 ca         1 5G7      -0.186250
     12 C12          1.7920     3.3060    -0.3790 ca         1 5G7       0.154100
     13 O13          2.5260     4.4180    -0.5650 oh         1 5G7      -0.530600
     14 C14          0.8260     3.1990     0.6180 ca         1 5G7      -0.186250
     15 C15          0.0970     2.0280     0.7500 ca         1 5G7      -0.039000
     16 N16          0.1280    -1.4700     0.2250 nf         1 5G7      -0.588100
     17 C17          1.5030    -1.6270     0.3960 ca         1 5G7       0.139400
     18 C18          2.2000    -2.4480    -0.5030 ca         1 5G7      -0.074300
     19 C19          1.4890    -3.0500    -1.6780 c3         1 5G7      -0.041800
     20 C20          3.5570    -2.6650    -0.2880 ca         1 5G7      -0.103000
     21 C21          4.2210    -2.1040     0.7950 ca         1 5G7      -0.118000
     22 C22          3.5180    -1.3060     1.6870 ca         1 5G7      -0.102000
     23 C23          2.1680    -1.0670     1.4870 ca         1 5G7      -0.123000
     24 H1          -6.4480    -0.9190     0.3030 ho         1 5G7       0.467000
     25 H2          -4.6010    -2.1190     0.9750 ha         1 5G7       0.123250
     26 H3          -2.1530    -2.1650     1.0310 ha         1 5G7       0.125250
     27 H4          -4.4750     1.6780    -1.0190 ha         1 5G7       0.123250
     28 H5          -2.0320     1.6300    -0.9480 ha         1 5G7       0.125250
     29 H7           1.4910     0.2340    -1.7530 ha         1 5G7       0.125250
     30 H8           2.7640     2.3110    -2.0180 ha         1 5G7       0.123250
     31 H9           2.2770     5.0990     0.0690 ho         1 5G7       0.467000
     32 H10          0.6380     4.0270     1.2910 ha         1 5G7       0.123250
     33 H11         -0.6530     1.9640     1.5280 ha         1 5G7       0.125250
     34 H13          1.1190    -2.2830    -2.3620 hc         1 5G7       0.043367
     35 H14          2.1500    -3.7070    -2.2430 hc         1 5G7       0.043367
     36 H15          0.6190    -3.6290    -1.3620 hc         1 5G7       0.043367
     37 H16          4.1040    -3.2900    -0.9840 ha         1 5G7       0.110000
     38 H17          5.2760    -2.2960     0.9440 ha         1 5G7       0.113000
     39 H18          4.0190    -0.8680     2.5410 ha         1 5G7       0.112000
     40 H19          1.6160    -0.4520     2.1870 ha         1 5G7       0.116000
@<TRIPOS>BOND
     1     1     2 1   
     2     1    24 1   
     3     2     3 ar  
     4     2     5 ar  
     5     3     4 ar  
     6     3    25 1   
     7     4     7 ar  
     8     4    26 1   
     9     5     6 ar  
    10     5    27 1   
    11     6     7 ar  
    12     6    28 1   
    13     7     8 1   
    14     8     9 1   
    15     8    16 2   
    16     9    10 ar  
    17     9    15 ar  
    18    10    11 ar  
    19    10    29 1   
    20    11    12 ar  
    21    11    30 1   
    22    12    13 1   
    23    12    14 ar  
    24    13    31 1   
    25    14    15 ar  
    26    14    32 1   
    27    15    33 1   
    28    16    17 1   
    29    17    18 ar  
    30    17    23 ar  
    31    18    19 1   
    32    18    20 ar  
    33    19    34 1   
    34    19    35 1   
    35    19    36 1   
    36    20    21 ar  
    37    20    37 1   
    38    21    22 ar  
    39    21    38 1   
    40    22    23 ar  
    41    22    39 1   
    42    23    40 1   
@<TRIPOS>SUBSTRUCTURE
     1 5G7         1 TEMP              0 ****  ****    0 ROOT
