@<TRIPOS>MOLECULE
5G7
   40    42     1     0     0
SMALL
No Charge or Current Charge


@<TRIPOS>ATOM
      1 O01         -5.8850    -0.1890     1.0830 oh         1 5G7      -0.530600
      2 C02         -4.5740    -0.1950     0.7130 ca         1 5G7       0.154100
      3 C03         -3.7580    -1.2950     1.0130 ca         1 5G7      -0.186250
      4 C04         -2.4070    -1.2960     0.6260 ca         1 5G7      -0.039000
      5 C05         -4.0440     0.8990     0.0180 ca         1 5G7      -0.186250
      6 C06         -2.6940     0.9040    -0.3700 ca         1 5G7      -0.039000
      7 C07         -1.8500    -0.1830    -0.0470 ca         1 5G7      -0.207900
      8 C08         -0.4190    -0.2010    -0.5030 ce         1 5G7       0.569500
      9 C09          0.3280     1.0900    -0.6560 ca         1 5G7      -0.207900
     10 C10          1.3040     1.2370    -1.6650 ca         1 5G7      -0.039000
     11 C11          2.0420     2.4280    -1.7730 ca         1 5G7      -0.186250
     12 C12          1.8300     3.4730    -0.8650 ca         1 5G7       0.154100
     13 O13          2.5530     4.6220    -0.9780 oh         1 5G7      -0.530600
     14 C14          0.8850     3.3290     0.1610 ca         1 5G7      -0.186250
     15 C15          0.1430     2.1390     0.2720 ca         1 5G7      -0.039000
     16 N16          0.1880    -1.3420    -0.7210 nf         1 5G7      -0.588100
     17 C17          1.2980    -1.7840     0.0450 ca         1 5G7       0.139400
     18 C18          2.4130    -2.3910    -0.5830 ca         1 5G7      -0.074300
     19 C19          2.4600    -2.6010    -2.0950 c3         1 5G7      -0.041800
     20 C20          3.5050    -2.8120     0.2030 ca         1 5G7      -0.103000
     21 C21          3.4890    -2.6410     1.5970 ca         1 5G7      -0.118000
     22 C22          2.3790    -2.0500     2.2190 ca         1 5G7      -0.102000
     23 C23          1.2870    -1.6240     1.4460 ca         1 5G7      -0.123000
     24 H1          -6.0780    -1.0290     1.5510 ho         1 5G7       0.467000
     25 H2          -4.1630    -2.1550     1.5410 ha         1 5G7       0.123250
     26 H3          -1.7910    -2.1630     0.8610 ha         1 5G7       0.125250
     27 H4          -4.6820     1.7440    -0.2280 ha         1 5G7       0.123250
     28 H5          -2.3110     1.7550    -0.9320 ha         1 5G7       0.125250
     29 H7           1.4810     0.4350    -2.3770 ha         1 5G7       0.125250
     30 H8           2.7830     2.5370    -2.5620 ha         1 5G7       0.123250
     31 H9           2.2750     5.2340    -0.2630 ho         1 5G7       0.467000
     32 H10          0.7230     4.1280     0.8800 ha         1 5G7       0.123250
     33 H11         -0.5690     2.0330     1.0880 ha         1 5G7       0.125250
     34 H13          2.6340    -1.6540    -2.6190 hc         1 5G7       0.043367
     35 H14          3.2640    -3.2890    -2.3840 hc         1 5G7       0.043367
     36 H15          1.5210    -3.0270    -2.4690 hc         1 5G7       0.043367
     37 H16          4.3700    -3.2760    -0.2660 ha         1 5G7       0.110000
     38 H17          4.3360    -2.9710     2.1950 ha         1 5G7       0.113000
     39 H18          2.3650    -1.9200     3.2990 ha         1 5G7       0.112000
     40 H19          0.4340    -1.1680     1.9400 ha         1 5G7       0.116000
@<TRIPOS>BOND
     1     1     2 1   
     2     1    24 1   
     3     2     3 ar  
     4     2     5 ar  
     5     3     4 ar  
     6     3    25 1   
     7     4     7 ar  
     8     4    26 1   
     9     5     6 ar  
    10     5    27 1   
    11     6     7 ar  
    12     6    28 1   
    13     7     8 1   
    14     8     9 1   
    15     8    16 2   
    16     9    10 ar  
    17     9    15 ar  
    18    10    11 ar  
    19    10    29 1   
    20    11    12 ar  
    21    11    30 1   
    22    12    13 1   
    23    12    14 ar  
    24    13    31 1   
    25    14    15 ar  
    26    14    32 1   
    27    15    33 1   
    28    16    17 1   
    29    17    18 ar  
    30    17    23 ar  
    31    18    19 1   
    32    18    20 ar  
    33    19    34 1   
    34    19    35 1   
    35    19    36 1   
    36    20    21 ar  
    37    20    37 1   
    38    21    22 ar  
    39    21    38 1   
    40    22    23 ar  
    41    22    39 1   
    42    23    40 1   
@<TRIPOS>SUBSTRUCTURE
     1 5G7         1 TEMP              0 ****  ****    0 ROOT
