@<TRIPOS>MOLECULE
5G8
   35    36     1     0     0
SMALL
No Charge or Current Charge


@<TRIPOS>ATOM
      1 C1           2.5110    -0.0280    -0.0060 ca         1 5G8       0.158100
      2 C2           3.4640     1.0160    -0.0130 ca         1 5G8       0.082000
      3 C3           4.8390     0.7220    -0.0160 ca         1 5G8      -0.060000
      4 C4           5.2710    -0.6130    -0.0130 ca         1 5G8       0.085000
      5 C5           4.3330    -1.6580    -0.0070 ca         1 5G8      -0.061000
      6 C6           2.9550    -1.3710    -0.0030 ca         1 5G8      -0.191000
      7 C7           0.1320    -0.6950     0.0030 c3         1 5G8       0.165600
      8 C8          -1.2210     0.0420     0.0050 c3         1 5G8      -0.081400
      9 Cl2          2.9520     2.7050    -0.0160 cl         1 5G8      -0.175000
     10 Cl4          6.9920    -0.9780    -0.0180 cl         1 5G8      -0.194000
     11 O1           1.1680     0.3010    -0.0030 os         1 5G8      -0.329100
     12 C9          -2.4310    -0.9180     0.0120 c3         1 5G8      -0.073400
     13 C10         -3.7870    -0.1800     0.0130 c3         1 5G8      -0.098400
     14 C11         -4.9940    -1.1410     0.0190 c3         1 5G8       0.072600
     15 N12         -6.2830    -0.4330     0.0190 na         1 5G8      -0.169500
     16 C16         -6.9600     0.0340    -1.0870 cc         1 5G8      -0.235000
     17 C15         -8.1000     0.6200    -0.5990 cd         1 5G8       0.230900
     18 N14         -8.1430     0.5270     0.7770 nd         1 5G8      -0.671000
     19 C13         -7.0360    -0.1120     1.1300 cc         1 5G8       0.387400
     20 H1           5.5670     1.5290    -0.0210 ha         1 5G8       0.145000
     21 H2           4.6750    -2.6910    -0.0050 ha         1 5G8       0.131000
     22 H3           2.2530    -2.1990     0.0010 ha         1 5G8       0.123000
     23 H4           0.2060    -1.3270     0.8980 h1         1 5G8       0.036700
     24 H5           0.2010    -1.3330    -0.8880 h1         1 5G8       0.036700
     25 H6          -1.2700     0.6950     0.8860 hc         1 5G8       0.062200
     26 H7          -1.2750     0.6890    -0.8800 hc         1 5G8       0.062200
     27 H8          -2.3770    -1.5710    -0.8680 hc         1 5G8       0.040700
     28 H9          -2.3720    -1.5660     0.8960 hc         1 5G8       0.040700
     29 H10         -3.8440     0.4730     0.8930 hc         1 5G8       0.058200
     30 H11         -3.8490     0.4670    -0.8710 hc         1 5G8       0.058200
     31 H12         -4.9500    -1.7870    -0.8670 h1         1 5G8       0.058700
     32 H13         -4.9450    -1.7840     0.9070 h1         1 5G8       0.058700
     33 H14         -6.6000    -0.0780    -2.1020 h4         1 5G8       0.155000
     34 H15         -8.8890     1.1030    -1.1630 h4         1 5G8       0.038100
     35 H16         -6.7280    -0.3650     2.1370 h5         1 5G8       0.051100
@<TRIPOS>BOND
     1     1     2 ar  
     2     1     6 ar  
     3     1    11 1   
     4     2     3 ar  
     5     2     9 1   
     6     3     4 ar  
     7     3    20 1   
     8     4     5 ar  
     9     4    10 1   
    10     5     6 ar  
    11     5    21 1   
    12     6    22 1   
    13     7     8 1   
    14     7    11 1   
    15     7    23 1   
    16     7    24 1   
    17     8    12 1   
    18     8    25 1   
    19     8    26 1   
    20    12    13 1   
    21    12    27 1   
    22    12    28 1   
    23    13    14 1   
    24    13    29 1   
    25    13    30 1   
    26    14    15 1   
    27    14    31 1   
    28    14    32 1   
    29    15    16 1   
    30    15    19 1   
    31    16    17 2   
    32    16    33 1   
    33    17    18 1   
    34    17    34 1   
    35    18    19 2   
    36    19    35 1   
@<TRIPOS>SUBSTRUCTURE
     1 5G8         1 TEMP              0 ****  ****    0 ROOT
