@<TRIPOS>MOLECULE
5G8
   35    36     1     0     0
SMALL
abcg2


@<TRIPOS>ATOM
      1 C1           2.4120    -0.0250    -0.0050 ca         1 5G8       0.158100
      2 C2           3.3960     0.9700    -0.0230 ca         1 5G8       0.082000
      3 C3           4.7420     0.6600    -0.0270 ca         1 5G8      -0.060000
      4 C4           5.1250    -0.6730    -0.0140 ca         1 5G8       0.085000
      5 C5           4.1770    -1.6790     0.0040 ca         1 5G8      -0.061000
      6 C6           2.8270    -1.3540     0.0080 ca         1 5G8      -0.191000
      7 C7           0.1020    -0.5920     0.0050 c3         1 5G8       0.165600
      8 C8          -1.2260     0.1350     0.0020 c3         1 5G8      -0.081400
      9 CL2          2.9050     2.6250    -0.0420 cl         1 5G8      -0.175000
     10 CL4          6.8110    -1.0700    -0.0200 cl         1 5G8      -0.194000
     11 O1           1.1400     0.3820    -0.0030 os         1 5G8      -0.329100
     12 C9          -2.3900    -0.8490     0.0110 c3         1 5G8      -0.073400
     13 C10         -3.7410    -0.1460     0.0030 c3         1 5G8      -0.098400
     14 C11         -4.8880    -1.1470     0.0210 c3         1 5G8       0.072600
     15 N12         -6.1870    -0.5040     0.0170 na         1 5G8      -0.169500
     16 C16         -6.8420     0.0030    -1.0700 cc         1 5G8      -0.235000
     17 C15         -7.9800     0.5760    -0.5790 cd         1 5G8       0.230900
     18 N14         -8.0310     0.4360     0.7790 nd         1 5G8      -0.671000
     19 C13         -6.9390    -0.2110     1.0980 cc         1 5G8       0.387400
     20 H1           5.4800     1.4500    -0.0410 ha         1 5G8       0.145000
     21 H2           4.4740    -2.7180     0.0140 ha         1 5G8       0.131000
     22 H3           2.1080    -2.1600     0.0210 ha         1 5G8       0.123000
     23 H4           0.1860    -1.2270     0.8950 h1         1 5G8       0.036700
     24 H5           0.1840    -1.2390    -0.8750 h1         1 5G8       0.036700
     25 H6          -1.2890     0.7880     0.8760 hc         1 5G8       0.062200
     26 H7          -1.2910     0.7740    -0.8830 hc         1 5G8       0.062200
     27 H8          -2.3170    -1.5100    -0.8580 hc         1 5G8       0.040700
     28 H9          -2.3180    -1.4930     0.8940 hc         1 5G8       0.040700
     29 H10         -3.8240     0.5120     0.8730 hc         1 5G8       0.058200
     30 H11         -3.8240     0.4890    -0.8840 hc         1 5G8       0.058200
     31 H12         -4.8310    -1.8080    -0.8450 h1         1 5G8       0.058700
     32 H13         -4.8310    -1.7770     0.9090 h1         1 5G8       0.058700
     33 H14         -6.4540    -0.0930    -2.0710 h4         1 5G8       0.155000
     34 H15         -8.7620     1.0730    -1.1330 h4         1 5G8       0.038100
     35 H16         -6.6410    -0.5010     2.0950 h5         1 5G8       0.051100
@<TRIPOS>BOND
     1     1     2 ar  
     2     1     6 ar  
     3     1    11 1   
     4     2     3 ar  
     5     2     9 1   
     6     3     4 ar  
     7     3    20 1   
     8     4     5 ar  
     9     4    10 1   
    10     5     6 ar  
    11     5    21 1   
    12     6    22 1   
    13     7     8 1   
    14     7    11 1   
    15     7    23 1   
    16     7    24 1   
    17     8    12 1   
    18     8    25 1   
    19     8    26 1   
    20    12    13 1   
    21    12    27 1   
    22    12    28 1   
    23    13    14 1   
    24    13    29 1   
    25    13    30 1   
    26    14    15 1   
    27    14    31 1   
    28    14    32 1   
    29    15    16 1   
    30    15    19 1   
    31    16    17 2   
    32    16    33 1   
    33    17    18 1   
    34    17    34 1   
    35    18    19 2   
    36    19    35 1   
@<TRIPOS>SUBSTRUCTURE
     1 5G8         1 TEMP              0 ****  ****    0 ROOT
