@<TRIPOS>MOLECULE
5G9
   34    37     1     0     0
SMALL
bcc


@<TRIPOS>ATOM
      1 N1           1.3790    -0.0690     0.4600 nb         1 5G9      -0.647000
      2 N3          -3.4360    -3.7000     0.6140 nv         1 5G9      -0.941500
      3 C4           5.2840     1.1030     0.4280 ca         1 5G9       0.416200
      4 C5           1.0880    -1.2800     0.0510 ca         1 5G9       0.523800
      5 C6          -0.3190    -1.6690     0.0520 cc         1 5G9      -0.235900
      6 C7          -2.4490    -2.8300     0.3470 cc         1 5G9       0.717300
      7 C8          -1.4510    -0.9200    -0.1250 cd         1 5G9       0.499800
      8 C10         -2.4550     1.3250     0.0780 ca         1 5G9      -0.083000
      9 C13         -0.8040     2.3350    -1.9100 ca         1 5G9      -0.130000
     10 C15          3.3920    -1.8230    -0.3680 ca         1 5G9      -0.126300
     11 C11         -2.5410     2.6530    -0.3090 ca         1 5G9       0.018400
     12 C12         -1.7240     3.1750    -1.2980 ca         1 5G9      -0.115000
     13 C14         -0.6960     1.0080    -1.5310 ca         1 5G9      -0.093000
     14 C9          -1.5130     0.4950    -0.5260 ca         1 5G9      -0.104500
     15 N2          -2.6350    -1.5760     0.0510 nd         1 5G9      -0.736000
     16 S           -0.7800    -3.3060     0.4350 ss         1 5G9      -0.240300
     17 C16          2.0830    -2.2020    -0.3740 ca         1 5G9      -0.239300
     18 C            3.7280    -0.5140     0.0440 ca         1 5G9       0.284300
     19 C1           2.6660     0.3300     0.4460 ca         1 5G9       0.297300
     20 C2           2.9910     1.6420     0.8560 ca         1 5G9      -0.126300
     21 C3           4.3020     2.0270     0.8450 ca         1 5G9      -0.245300
     22 N            5.0190    -0.1180     0.0420 nb         1 5G9      -0.652000
     23 H1          -4.3740    -3.4170     0.3810 hn         1 5G9       0.435300
     24 H2          -3.2600    -4.6900     0.5790 hn         1 5G9       0.435300
     25 H3           6.3260     1.4030     0.4180 h4         1 5G9       0.021100
     26 H4          -3.1070     0.9360     0.8490 ha         1 5G9       0.160000
     27 H5          -0.1720     2.7240    -2.6980 ha         1 5G9       0.135000
     28 H6           4.1760    -2.4970    -0.6870 ha         1 5G9       0.155000
     29 H7          -1.8070     4.2120    -1.5940 ha         1 5G9       0.145000
     30 H8           0.0130     0.3640    -2.0340 ha         1 5G9       0.137000
     31 H9           1.8020    -3.1890    -0.7180 ha         1 5G9       0.147000
     32 H10          2.1990     2.3110     1.1660 ha         1 5G9       0.158000
     33 H11          4.5990     3.0210     1.1500 ha         1 5G9       0.145000
     34 CL          -3.7050     3.6820     0.4630 cl         1 5G9      -0.117400
@<TRIPOS>BOND
     1     1     4 ar  
     2     1    19 ar  
     3     2     6 1   
     4     2    23 1   
     5     2    24 1   
     6     3    21 ar  
     7     3    22 ar  
     8     3    25 1   
     9     4     5 1   
    10     4    17 ar  
    11     5     7 2   
    12     5    16 1   
    13     6    15 2   
    14     6    16 1   
    15     7    14 1   
    16     7    15 1   
    17     8    11 ar  
    18     8    14 ar  
    19     8    26 1   
    20     9    12 ar  
    21     9    13 ar  
    22     9    27 1   
    23    10    17 ar  
    24    10    18 ar  
    25    10    28 1   
    26    11    12 ar  
    27    11    34 1   
    28    12    29 1   
    29    13    14 ar  
    30    13    30 1   
    31    17    31 1   
    32    18    19 ar  
    33    18    22 ar  
    34    19    20 ar  
    35    20    21 ar  
    36    20    32 1   
    37    21    33 1   
@<TRIPOS>SUBSTRUCTURE
     1 5G9         1 TEMP              0 ****  ****    0 ROOT
