@<TRIPOS>MOLECULE
5G9
   34    37     1     0     0
SMALL
No Charge or Current Charge


@<TRIPOS>ATOM
      1 N1           1.3760    -0.1920     0.5830 nb         1 5G9      -0.647000
      2 N3          -3.3940    -3.5390     1.0440 nv         1 5G9      -1.051900
      3 C4           5.2920     1.1410     0.5050 ca         1 5G9       0.350900
      4 C5           1.0610    -1.3280    -0.0770 ca         1 5G9       0.458500
      5 C6          -0.3170    -1.7930    -0.0340 cc         1 5G9      -0.315500
      6 C7          -2.3560    -2.7960     0.6590 cc         1 5G9       0.717300
      7 C8          -1.4070    -0.9310    -0.0210 cd         1 5G9       0.434500
      8 C10         -2.5670     1.2990    -0.1300 ca         1 5G9      -0.065000
      9 C13         -0.6820     2.3020    -1.9480 ca         1 5G9      -0.112000
     10 C15          3.3620    -1.6340    -0.7910 ca         1 5G9      -0.043000
     11 C11         -2.6860     2.6100    -0.6180 ca         1 5G9       0.110000
     12 C12         -1.7410     3.1180    -1.5210 ca         1 5G9      -0.097000
     13 C14         -0.5610     0.9890    -1.4600 ca         1 5G9      -0.075000
     14 C9          -1.4810     0.4730    -0.5140 ca         1 5G9      -0.104500
     15 N2          -2.5940    -1.5520     0.3620 nd         1 5G9      -0.736000
     16 S           -0.7470    -3.4100     0.4490 ss         1 5G9      -0.095400
     17 C16          2.0290    -2.0780    -0.7640 ca         1 5G9      -0.156000
     18 C            3.7070    -0.4460    -0.1240 ca         1 5G9       0.219000
     19 C1           2.6590     0.2470     0.5600 ca         1 5G9       0.232000
     20 C2           3.0000     1.4360     1.2300 ca         1 5G9      -0.043000
     21 C3           4.3310     1.8880     1.2020 ca         1 5G9      -0.162000
     22 N            4.9930    -0.0060    -0.1480 nb         1 5G9      -0.652000
     23 H1          -4.2950    -3.1270     0.8380 hn         1 5G9       0.490500
     24 H2          -3.3170    -4.5390     0.9020 hn         1 5G9       0.490500
     25 H3           6.3310     1.4670     0.4680 h4         1 5G9       0.021100
     26 H4          -3.3160     0.9340     0.5670 ha         1 5G9       0.142000
     27 H5           0.0390     2.6820    -2.6680 ha         1 5G9       0.117000
     28 H6           4.1200    -2.2020    -1.3240 ha         1 5G9       0.137000
     29 H7          -1.8370     4.1330    -1.8990 ha         1 5G9       0.127000
     30 H8           0.2440     0.3710    -1.8480 ha         1 5G9       0.119000
     31 H9           1.7450    -2.9930    -1.2760 ha         1 5G9       0.129000
     32 H10          2.2380     1.9990     1.7630 ha         1 5G9       0.140000
     33 H11          4.6180     2.8030     1.7120 ha         1 5G9       0.127000
     34 Cl          -4.0290     3.6210    -0.0980 cl         1 5G9      -0.209000
@<TRIPOS>BOND
     1     1     4 ar  
     2     1    19 ar  
     3     2     6 1   
     4     2    23 1   
     5     2    24 1   
     6     3    21 ar  
     7     3    22 ar  
     8     3    25 1   
     9     4     5 1   
    10     4    17 ar  
    11     5     7 2   
    12     5    16 1   
    13     6    15 2   
    14     6    16 1   
    15     7    14 1   
    16     7    15 1   
    17     8    11 ar  
    18     8    14 ar  
    19     8    26 1   
    20     9    12 ar  
    21     9    13 ar  
    22     9    27 1   
    23    10    17 ar  
    24    10    18 ar  
    25    10    28 1   
    26    11    12 ar  
    27    11    34 1   
    28    12    29 1   
    29    13    14 ar  
    30    13    30 1   
    31    17    31 1   
    32    18    19 ar  
    33    18    22 ar  
    34    19    20 ar  
    35    20    21 ar  
    36    20    32 1   
    37    21    33 1   
@<TRIPOS>SUBSTRUCTURE
     1 5G9         1 TEMP              0 ****  ****    0 ROOT
