@<TRIPOS>MOLECULE
5GA
   34    37     1     0     0
SMALL
No Charge or Current Charge


@<TRIPOS>ATOM
      1 N1          -1.4960    -0.0730     0.5570 nb         1 5GA      -0.652000
      2 N3           1.7710     4.7710     0.8150 nv         1 5GA      -1.053900
      3 C4          -4.6890    -2.7050     0.5890 ca         1 5GA       0.351900
      4 C5          -1.6030     1.0720    -0.1520 ca         1 5GA       0.459500
      5 C6          -2.7730     1.4020    -0.8550 ca         1 5GA      -0.157000
      6 C7          -3.8630     0.5150    -0.8450 ca         1 5GA      -0.042000
      7 C8          -0.4780     1.9960    -0.1470 cc         1 5GA      -0.315500
      8 C10          0.8460     1.5780    -0.0970 cd         1 5GA       0.436500
      9 C13          3.3060    -1.3070    -0.4990 ca         1 5GA       0.058000
     10 C15          1.3380    -1.7970    -1.8390 ca         1 5GA      -0.155000
     11 Cl           4.9160    -1.7330     0.0820 cl         1 5GA      -0.175000
     12 C12          2.7210    -0.0980    -0.0870 ca         1 5GA      -0.041000
     13 C14          2.6080    -2.1610    -1.3710 ca         1 5GA       0.186000
     14 F            3.1600    -3.3260    -1.7800 f          1 5GA      -0.163000
     15 C16          0.7530    -0.5870    -1.4250 ca         1 5GA      -0.045000
     16 C11          1.4190     0.2680    -0.5120 ca         1 5GA      -0.119500
     17 N2           1.7330     2.5970     0.2410 nd         1 5GA      -0.739000
     18 C9           1.0690     3.6950     0.4600 cc         1 5GA       0.720300
     19 S           -0.6530     3.6840     0.2450 ss         1 5GA      -0.092400
     20 C           -3.7670    -0.6890    -0.1260 ca         1 5GA       0.219000
     21 C1          -2.5410    -0.9370     0.5700 ca         1 5GA       0.233000
     22 C2          -2.4400    -2.1400     1.2920 ca         1 5GA      -0.044000
     23 C3          -3.5250    -3.0340     1.3010 ca         1 5GA      -0.160000
     24 N           -4.8140    -1.5550    -0.1130 nb         1 5GA      -0.651000
     25 H1           2.7070     4.5650     1.1390 hn         1 5GA       0.493000
     26 H2           1.2730     5.4960     1.3170 hn         1 5GA       0.493000
     27 H3          -5.5450    -3.3790     0.5790 h4         1 5GA       0.022100
     28 H4          -2.8310     2.3350    -1.4080 ha         1 5GA       0.130000
     29 H5          -4.7730     0.7550    -1.3890 ha         1 5GA       0.138000
     30 H6           0.8120    -2.4470    -2.5330 ha         1 5GA       0.135000
     31 H7           3.2800     0.5470     0.5870 ha         1 5GA       0.143000
     32 H8          -0.2110    -0.3130    -1.8430 ha         1 5GA       0.124000
     33 H9          -1.5280    -2.3740     1.8360 ha         1 5GA       0.140000
     34 H10         -3.4710    -3.9690     1.8510 ha         1 5GA       0.128000
@<TRIPOS>BOND
     1     1     4 ar  
     2     1    21 ar  
     3     2    18 1   
     4     2    25 1   
     5     2    26 1   
     6     3    23 ar  
     7     3    24 ar  
     8     3    27 1   
     9     4     5 ar  
    10     4     7 1   
    11     5     6 ar  
    12     5    28 1   
    13     6    20 ar  
    14     6    29 1   
    15     7     8 2   
    16     7    19 1   
    17     8    16 1   
    18     8    17 1   
    19     9    11 1   
    20     9    12 ar  
    21     9    13 ar  
    22    10    13 ar  
    23    10    15 ar  
    24    10    30 1   
    25    12    16 ar  
    26    12    31 1   
    27    13    14 1   
    28    15    16 ar  
    29    15    32 1   
    30    17    18 2   
    31    18    19 1   
    32    20    21 ar  
    33    20    24 ar  
    34    21    22 ar  
    35    22    23 ar  
    36    22    33 1   
    37    23    34 1   
@<TRIPOS>SUBSTRUCTURE
     1 5GA         1 TEMP              0 ****  ****    0 ROOT
