@<TRIPOS>MOLECULE
5GA
   34    37     1     0     0
SMALL
bcc


@<TRIPOS>ATOM
      1 N1          -1.4610    -0.2100     0.4270 nb         1 5GA      -0.652000
      2 N3           1.7490     4.9220     0.3360 nv         1 5GA      -0.943500
      3 C4          -4.6990    -2.6860     0.4580 ca         1 5GA       0.417200
      4 C5          -1.6210     1.0250     0.0170 ca         1 5GA       0.524800
      5 C6          -2.8860     1.5350    -0.3860 ca         1 5GA      -0.240300
      6 C7          -3.9760     0.7180    -0.3570 ca         1 5GA      -0.125300
      7 C8          -0.4400     1.8820    -0.0150 cc         1 5GA      -0.235900
      8 C10          0.8860     1.5750    -0.1690 cd         1 5GA       0.501800
      9 C13          3.2000    -1.3680    -0.1600 ca         1 5GA      -0.033600
     10 C15          1.4480    -1.8060    -1.7470 ca         1 5GA      -0.173000
     11 CL           4.6490    -1.8810     0.6210 cl         1 5GA      -0.083400
     12 C12          2.6320    -0.1410     0.1360 ca         1 5GA      -0.059000
     13 C14          2.6030    -2.1930    -1.0970 ca         1 5GA       0.150900
     14 F            3.1600    -3.3720    -1.3790 f          1 5GA      -0.127900
     15 C16          0.8780    -0.5820    -1.4430 ca         1 5GA      -0.063000
     16 C11          1.4540     0.2570    -0.4910 ca         1 5GA      -0.119500
     17 N2           1.7600     2.6140    -0.0320 nd         1 5GA      -0.739000
     18 C9           1.1400     3.7340     0.2070 cc         1 5GA       0.720300
     19 S           -0.5890     3.5940     0.2840 ss         1 5GA      -0.237300
     20 C           -3.8220    -0.6230     0.0580 ca         1 5GA       0.284300
     21 C1          -2.5240    -1.0360     0.4360 ca         1 5GA       0.298300
     22 C2          -2.3570    -2.3790     0.8440 ca         1 5GA      -0.127300
     23 C3          -3.4460    -3.2030     0.8520 ca         1 5GA      -0.243300
     24 N           -4.8900    -1.4500     0.0760 nb         1 5GA      -0.651000
     25 H1           2.7490     4.9190     0.4510 hn         1 5GA       0.437800
     26 H2           1.2630     5.7010     0.7460 hn         1 5GA       0.437800
     27 H3          -5.5680    -3.3350     0.4660 h4         1 5GA       0.022100
     28 H4          -2.9820     2.5570    -0.7310 ha         1 5GA       0.148000
     29 H5          -4.9530     1.0730    -0.6590 ha         1 5GA       0.156000
     30 H6           1.0050    -2.4550    -2.4910 ha         1 5GA       0.153000
     31 H7           3.1070     0.5040     0.8630 ha         1 5GA       0.161000
     32 H8          -0.0150    -0.2770    -1.9690 ha         1 5GA       0.142000
     33 H9          -1.3740    -2.7250     1.1350 ha         1 5GA       0.158000
     34 H10         -3.3670    -4.2380     1.1530 ha         1 5GA       0.146000
@<TRIPOS>BOND
     1     1     4 ar  
     2     1    21 ar  
     3     2    18 1   
     4     2    25 1   
     5     2    26 1   
     6     3    23 ar  
     7     3    24 ar  
     8     3    27 1   
     9     4     5 ar  
    10     4     7 1   
    11     5     6 ar  
    12     5    28 1   
    13     6    20 ar  
    14     6    29 1   
    15     7     8 2   
    16     7    19 1   
    17     8    16 1   
    18     8    17 1   
    19     9    11 1   
    20     9    12 ar  
    21     9    13 ar  
    22    10    13 ar  
    23    10    15 ar  
    24    10    30 1   
    25    12    16 ar  
    26    12    31 1   
    27    13    14 1   
    28    15    16 ar  
    29    15    32 1   
    30    17    18 2   
    31    18    19 1   
    32    20    21 ar  
    33    20    24 ar  
    34    21    22 ar  
    35    22    23 ar  
    36    22    33 1   
    37    23    34 1   
@<TRIPOS>SUBSTRUCTURE
     1 5GA         1 TEMP              0 ****  ****    0 ROOT
