@<TRIPOS>MOLECULE
5GB
   37    40     1     0     0
SMALL
bcc


@<TRIPOS>ATOM
      1 N1          -1.1940     0.3220     0.4590 nb         1 5GB      -0.646000
      2 N3           4.6150     1.9730     0.6110 nv         1 5GB      -0.940500
      3 C4          -5.2530     0.6580     0.2890 ca         1 5GB       0.415200
      4 C5          -0.4630     1.3020    -0.0160 ca         1 5GB       0.526800
      5 C6           0.9870     1.1520     0.0360 cc         1 5GB      -0.237900
      6 C7           3.3840     1.4940     0.3580 cc         1 5GB       0.714300
      7 C8           1.7750     0.0330    -0.0270 cd         1 5GB       0.506800
      8 C10          1.8870    -2.4020     0.3890 ca         1 5GB      -0.089000
      9 C13          0.0410    -2.9150    -1.5990 ca         1 5GB      -0.136000
     10 C15          0.4070    -1.6070    -1.3270 ca         1 5GB      -0.096000
     11 C17         -1.0390     2.4830    -0.5620 ca         1 5GB      -0.239300
     12 S            2.0010     2.5430     0.3220 ss         1 5GB      -0.248300
     13 N2           3.1120     0.2370     0.1630 nd         1 5GB      -0.735000
     14 C9           1.3290    -1.3390    -0.3180 ca         1 5GB      -0.114500
     15 C12          0.5870    -3.9640    -0.8720 ca         1 5GB      -0.120000
     16 C11          1.5190    -3.7200     0.1340 ca         1 5GB      -0.086300
     17 C14          2.1000    -4.8460     0.9390 c3         1 5GB      -0.044800
     18 C16         -2.3950     2.6080    -0.6060 ca         1 5GB      -0.128300
     19 C           -3.2010     1.5550    -0.1210 ca         1 5GB       0.283300
     20 C1          -2.5350     0.4200     0.4000 ca         1 5GB       0.299300
     21 C2          -3.3330    -0.6410     0.8820 ca         1 5GB      -0.126300
     22 C3          -4.6920    -0.5210     0.8250 ca         1 5GB      -0.246300
     23 N           -4.5460     1.6590    -0.1680 nb         1 5GB      -0.653000
     24 H1           5.3910     1.3640     0.4090 hn         1 5GB       0.432800
     25 H2           4.7990     2.9560     0.5100 hn         1 5GB       0.432800
     26 H3          -6.3320     0.7610     0.2420 h4         1 5GB       0.020100
     27 H4           2.6220    -2.1990     1.1600 ha         1 5GB       0.141000
     28 H5          -0.6670    -3.1190    -2.3930 ha         1 5GB       0.129000
     29 H6          -0.0090    -0.8000    -1.9150 ha         1 5GB       0.132000
     30 H7          -0.4080     3.2690    -0.9560 ha         1 5GB       0.147000
     31 H8           0.2950    -4.9840    -1.0970 ha         1 5GB       0.126000
     32 H9           1.4840    -5.0600     1.8150 hc         1 5GB       0.040367
     33 H10          2.1630    -5.7650     0.3570 hc         1 5GB       0.040367
     34 H11          3.1000    -4.6060     1.3000 hc         1 5GB       0.040367
     35 H12         -2.8660     3.4920    -1.0170 ha         1 5GB       0.154000
     36 H13         -2.8520    -1.5240     1.2840 ha         1 5GB       0.158000
     37 H14         -5.3420    -1.3090     1.1810 ha         1 5GB       0.145000
@<TRIPOS>BOND
     1     1     4 ar  
     2     1    20 ar  
     3     2     6 1   
     4     2    24 1   
     5     2    25 1   
     6     3    22 ar  
     7     3    23 ar  
     8     3    26 1   
     9     4     5 1   
    10     4    11 ar  
    11     5     7 2   
    12     5    12 1   
    13     6    12 1   
    14     6    13 2   
    15     7    13 1   
    16     7    14 1   
    17     8    14 ar  
    18     8    16 ar  
    19     8    27 1   
    20     9    10 ar  
    21     9    15 ar  
    22     9    28 1   
    23    10    14 ar  
    24    10    29 1   
    25    11    18 ar  
    26    11    30 1   
    27    15    16 ar  
    28    15    31 1   
    29    16    17 1   
    30    17    32 1   
    31    17    33 1   
    32    17    34 1   
    33    18    19 ar  
    34    18    35 1   
    35    19    20 ar  
    36    19    23 ar  
    37    20    21 ar  
    38    21    22 ar  
    39    21    36 1   
    40    22    37 1   
@<TRIPOS>SUBSTRUCTURE
     1 5GB         1 TEMP              0 ****  ****    0 ROOT
