@<TRIPOS>MOLECULE
5GB
   37    40     1     0     0
SMALL
No Charge or Current Charge


@<TRIPOS>ATOM
      1 N1          -1.1650     0.4860     0.5910 nb         1 5GB      -0.646000
      2 N3           4.4880     1.8830     1.0770 nv         1 5GB      -1.050900
      3 C4          -5.2910     0.6740     0.3360 ca         1 5GB       0.349900
      4 C5          -0.4270     1.3310    -0.1620 ca         1 5GB       0.461500
      5 C6           1.0220     1.2630    -0.0560 cc         1 5GB      -0.317500
      6 C7           3.2620     1.5280     0.6890 cc         1 5GB       0.714300
      7 C8           1.7130     0.0700     0.1220 cd         1 5GB       0.441500
      8 C10          1.9600    -2.4280     0.3150 ca         1 5GB      -0.071000
      9 C13         -0.0960    -2.8710    -1.5330 ca         1 5GB      -0.118000
     10 C15          0.2640    -1.5590    -1.1860 ca         1 5GB      -0.078000
     11 C17         -1.0210     2.2850    -1.0040 ca         1 5GB      -0.156000
     12 S            2.0040     2.6570     0.2990 ss         1 5GB      -0.103400
     13 N2           3.0320     0.2570     0.5320 nd         1 5GB      -0.735000
     14 C9           1.2760    -1.3120    -0.2270 ca         1 5GB      -0.114500
     15 C12          0.5640    -3.9630    -0.9520 ca         1 5GB      -0.102000
     16 C11          1.6030    -3.7450    -0.0320 ca         1 5GB      -0.086300
     17 C14          2.3360    -4.9240     0.5900 c3         1 5GB      -0.044800
     18 C16         -2.4210     2.3570    -1.0920 ca         1 5GB      -0.045000
     19 C           -3.2080     1.4760    -0.3300 ca         1 5GB       0.218000
     20 C1          -2.5170     0.5450     0.5100 ca         1 5GB       0.234000
     21 C2          -3.3000    -0.3390     1.2750 ca         1 5GB      -0.043000
     22 C3          -4.7020    -0.2730     1.1870 ca         1 5GB      -0.163000
     23 N           -4.5630     1.5360    -0.4120 nb         1 5GB      -0.653000
     24 H1           5.1800     1.1510     0.9810 hn         1 5GB       0.488000
     25 H2           4.7890     2.8200     0.8360 hn         1 5GB       0.488000
     26 H3          -6.3740     0.7470     0.2480 h4         1 5GB       0.020100
     27 H4           2.7640    -2.2760     1.0310 ha         1 5GB       0.123000
     28 H5          -0.8830    -3.0410    -2.2650 ha         1 5GB       0.111000
     29 H6          -0.2370    -0.7390    -1.6910 ha         1 5GB       0.114000
     30 H7          -0.3990     2.9570    -1.5870 ha         1 5GB       0.129000
     31 H8           0.2780    -4.9760    -1.2280 ha         1 5GB       0.108000
     32 H9           1.8930    -5.1940     1.5560 hc         1 5GB       0.040367
     33 H10          2.2950    -5.8090    -0.0560 hc         1 5GB       0.040367
     34 H11          3.3940    -4.6910     0.7600 hc         1 5GB       0.040367
     35 H12         -2.8940     3.0870    -1.7440 ha         1 5GB       0.136000
     36 H13         -2.8220    -1.0650     1.9270 ha         1 5GB       0.140000
     37 H14         -5.3270    -0.9450     1.7670 ha         1 5GB       0.127000
@<TRIPOS>BOND
     1     1     4 ar  
     2     1    20 ar  
     3     2     6 1   
     4     2    24 1   
     5     2    25 1   
     6     3    22 ar  
     7     3    23 ar  
     8     3    26 1   
     9     4     5 1   
    10     4    11 ar  
    11     5     7 2   
    12     5    12 1   
    13     6    12 1   
    14     6    13 2   
    15     7    13 1   
    16     7    14 1   
    17     8    14 ar  
    18     8    16 ar  
    19     8    27 1   
    20     9    10 ar  
    21     9    15 ar  
    22     9    28 1   
    23    10    14 ar  
    24    10    29 1   
    25    11    18 ar  
    26    11    30 1   
    27    15    16 ar  
    28    15    31 1   
    29    16    17 1   
    30    17    32 1   
    31    17    33 1   
    32    17    34 1   
    33    18    19 ar  
    34    18    35 1   
    35    19    20 ar  
    36    19    23 ar  
    37    20    21 ar  
    38    21    22 ar  
    39    21    36 1   
    40    22    37 1   
@<TRIPOS>SUBSTRUCTURE
     1 5GB         1 TEMP              0 ****  ****    0 ROOT
