@<TRIPOS>MOLECULE
5GC
   27    27     1     0     0
SMALL
No Charge or Current Charge


@<TRIPOS>ATOM
      1 C4          -0.2940     2.1040     0.2180 cc         1 5GC       0.590900
      2 C5          -1.4400     0.4080    -0.4230 cd         1 5GC      -0.050000
      3 C6          -3.2910    -1.5820     0.3780 c3         1 5GC      -0.032100
      4 N1          -2.2730     1.4380     0.0080 na         1 5GC       0.013800
      5 N2           0.7310     2.9080     0.4880 nv         1 5GC      -1.023900
      6 O1           2.3940     0.9370    -0.9230 o          1 5GC      -0.528500
      7 O            1.0650    -1.1530    -1.5670 o          1 5GC      -0.528500
      8 C1           1.8130    -0.8310     0.9810 c3         1 5GC      -0.265700
      9 C2           0.6920    -1.7450     1.5400 c3         1 5GC      -0.075100
     10 C            3.1690    -1.5760     0.8890 c3         1 5GC      -0.075100
     11 C3          -0.1450     0.8050    -0.2460 cc         1 5GC      -0.464500
     12 S1          -2.0170    -1.1990    -0.8970 ss         1 5GC       0.005000
     13 N           -1.5120     2.5410     0.3990 nd         1 5GC      -0.590800
     14 H1          -2.8400    -1.5250     1.3760 h1         1 5GC       0.073033
     15 H2          -4.1180    -0.8660     0.3080 h1         1 5GC       0.073033
     16 H3          -3.6780    -2.5950     0.2130 h1         1 5GC       0.073033
     17 H4          -3.2920     1.4390     0.0300 hn         1 5GC       0.376000
     18 H5           1.6080     2.6710     0.0370 hn         1 5GC       0.473500
     19 H6           0.5120     3.8940     0.5640 hn         1 5GC       0.473500
     20 H7           1.9360     0.0130     1.6700 h1         1 5GC       0.080700
     21 H8           0.4700    -2.5690     0.8500 hc         1 5GC       0.050533
     22 H9           0.9940    -2.1810     2.5010 hc         1 5GC       0.050533
     23 H10         -0.2310    -1.1790     1.7130 hc         1 5GC       0.050533
     24 H11          3.1100    -2.4180     0.1880 hc         1 5GC       0.050533
     25 H12          3.9660    -0.9030     0.5500 hc         1 5GC       0.050533
     26 H13          3.4610    -1.9710     1.8700 hc         1 5GC       0.050533
     27 S            1.3660    -0.0690    -0.6230 sy         1 5GC       1.098500
@<TRIPOS>BOND
     1     1     5 1   
     2     1    11 1   
     3     1    13 2   
     4     2     4 1   
     5     2    11 2   
     6     2    12 1   
     7     3    12 1   
     8     3    14 1   
     9     3    15 1   
    10     3    16 1   
    11     4    13 1   
    12     4    17 1   
    13     5    18 1   
    14     5    19 1   
    15     6    27 2   
    16     7    27 2   
    17     8     9 1   
    18     8    10 1   
    19     8    20 1   
    20     8    27 1   
    21     9    21 1   
    22     9    22 1   
    23     9    23 1   
    24    10    24 1   
    25    10    25 1   
    26    10    26 1   
    27    11    27 1   
@<TRIPOS>SUBSTRUCTURE
     1 5GC         1 TEMP              0 ****  ****    0 ROOT
