@<TRIPOS>MOLECULE
5GC
   27    27     1     0     0
SMALL
abcg2


@<TRIPOS>ATOM
      1 C4          -0.2810     2.0030     0.2480 cc         1 5GC       0.590900
      2 C5          -1.4650     0.1380    -0.1060 cd         1 5GC      -0.050000
      3 C6          -3.7670    -1.3320    -0.0280 c3         1 5GC      -0.032100
      4 N1          -2.2200     1.1480     0.3100 na         1 5GC       0.013800
      5 N2           0.7030     2.9460     0.3040 nv         1 5GC      -1.023900
      6 O1           2.1880     0.6920    -1.2340 o          1 5GC      -0.528500
      7 O            0.8340    -1.4340    -1.3100 o          1 5GC      -0.528500
      8 C1           2.0100    -0.7480     0.9760 c3         1 5GC      -0.265700
      9 C2           1.0570    -1.6110     1.7810 c3         1 5GC      -0.075100
     10 C            3.3220    -1.4550     0.6610 c3         1 5GC      -0.075100
     11 C3          -0.1680     0.6460    -0.1660 cc         1 5GC      -0.464500
     12 S1          -2.0270    -1.4570    -0.5000 ss         1 5GC       0.005000
     13 N           -1.5320     2.2890     0.5360 nd         1 5GC      -0.590800
     14 H1          -3.8850    -1.1060     1.0300 h1         1 5GC       0.073033
     15 H2          -4.3000    -0.6060    -0.6390 h1         1 5GC       0.073033
     16 H3          -4.1910    -2.3160    -0.2200 h1         1 5GC       0.073033
     17 H4          -3.2180     1.1480     0.4530 hn         1 5GC       0.376000
     18 H5           1.6520     2.6130     0.3380 hn         1 5GC       0.473500
     19 H6           0.5310     3.7120     0.9350 hn         1 5GC       0.473500
     20 H7           2.2080     0.1890     1.5050 h1         1 5GC       0.080700
     21 H8           0.8110    -2.5330     1.2550 hc         1 5GC       0.050533
     22 H9           1.5400    -1.8810     2.7210 hc         1 5GC       0.050533
     23 H10          0.1320    -1.0920     2.0260 hc         1 5GC       0.050533
     24 H11          3.1510    -2.3760     0.1020 hc         1 5GC       0.050533
     25 H12          4.0090    -0.8240     0.1010 hc         1 5GC       0.050533
     26 H13          3.8070    -1.7250     1.5990 hc         1 5GC       0.050533
     27 S            1.2540    -0.2330    -0.5840 sy         1 5GC       1.098500
@<TRIPOS>BOND
     1     1     5 1   
     2     1    11 1   
     3     1    13 2   
     4     2     4 1   
     5     2    11 2   
     6     2    12 1   
     7     3    12 1   
     8     3    14 1   
     9     3    15 1   
    10     3    16 1   
    11     4    13 1   
    12     4    17 1   
    13     5    18 1   
    14     5    19 1   
    15     6    27 2   
    16     7    27 2   
    17     8     9 1   
    18     8    10 1   
    19     8    20 1   
    20     8    27 1   
    21     9    21 1   
    22     9    22 1   
    23     9    23 1   
    24    10    24 1   
    25    10    25 1   
    26    10    26 1   
    27    11    27 1   
@<TRIPOS>SUBSTRUCTURE
     1 5GC         1 TEMP              0 ****  ****    0 ROOT
