@<TRIPOS>MOLECULE
5GD
   60    63     1     0     0
SMALL
No Charge or Current Charge


@<TRIPOS>ATOM
      1 C3          -3.6440    -0.6220    -0.1220 ca         1 5GD       0.262400
      2 C5          -3.1840     1.7510     0.3950 c          1 5GD       0.593600
      3 C2          -4.5230    -1.6820    -0.3710 ca         1 5GD      -0.194000
      4 C1          -5.9050    -1.4890    -0.3790 ca         1 5GD       0.221100
      5 C8           0.8810     0.9240    -0.2990 ca         1 5GD      -0.069500
      6 C12          4.8940    -0.6080     1.2730 c3         1 5GD       0.165600
      7 C9           2.2740     0.7190    -0.3160 ca         1 5GD      -0.094800
      8 C11          2.7970    -0.5370     0.0530 ca         1 5GD       0.123100
      9 C10          3.1980     1.8540    -0.7490 c3         1 5GD      -0.042300
     10 C13          6.3760    -1.0150     1.0470 c3         1 5GD       0.172800
     11 C14          6.8780     0.3060    -1.0390 c5         1 5GD       0.162300
     12 C20          0.5410    -1.3710     0.4260 ca         1 5GD      -0.069500
     13 C21         -5.5590     0.8720     0.1200 ca         1 5GD       0.254100
     14 C17          8.6610    -0.3920     0.2490 c5         1 5GD       0.162300
     15 C18          1.9310    -1.5930     0.4110 ca         1 5GD      -0.094800
     16 O1          -3.4630     2.9130     0.6440 o          1 5GD      -0.526000
     17 C4          -4.1600     0.6620     0.1260 ca         1 5GD      -0.279600
     18 O3          -6.0590     2.1370     0.3640 os         1 5GD      -0.308100
     19 C23         -6.4270    -0.2090    -0.1340 ca         1 5GD      -0.332000
     20 O           -6.7040    -2.5840    -0.6330 os         1 5GD      -0.336100
     21 C           -8.1400    -2.4990    -0.6670 c3         1 5GD       0.149900
     22 N           -1.8950     1.3570     0.3510 ns         1 5GD      -0.435400
     23 C6          -1.4630     0.0910     0.0830 cc         1 5GD       0.577500
     24 N1          -2.2780    -0.9370    -0.1430 nd         1 5GD      -0.647100
     25 C7          -0.0030    -0.1080     0.0980 ca         1 5GD      -0.155900
     26 N2           7.2390    -0.0140     0.3600 n3         1 5GD      -0.723600
     27 C16          9.2300     0.8130    -0.5420 c5         1 5GD      -0.081400
     28 C15          8.0520     1.2240    -1.4800 c5         1 5GD      -0.081400
     29 H1          -4.1270    -2.6740    -0.5620 ha         1 5GD       0.148000
     30 H2           0.4910     1.8900    -0.6120 ha         1 5GD       0.128000
     31 H3           4.4670    -1.2680     2.0380 h1         1 5GD       0.039200
     32 H4           4.8460     0.4210     1.6540 h1         1 5GD       0.039200
     33 H5           3.9620     2.0560     0.0110 hc         1 5GD       0.047367
     34 H6           3.7110     1.6030    -1.6850 hc         1 5GD       0.047367
     35 H7           2.6490     2.7890    -0.9150 hc         1 5GD       0.047367
     36 H8           6.8040    -1.2190     2.0380 h1         1 5GD       0.038700
     37 H9           6.3930    -1.9680     0.4990 h1         1 5GD       0.038700
     38 H11          5.9120     0.8190    -1.1230 h1         1 5GD       0.038200
     39 H15         -0.1210    -2.1880     0.7070 ha         1 5GD       0.128000
     40 H16          9.1460    -0.5080     1.2290 h1         1 5GD       0.038200
     41 H17          8.7860    -1.3310    -0.3090 h1         1 5GD       0.038200
     42 H21         -7.5000    -0.0580    -0.1410 ha         1 5GD       0.124000
     43 H22         -8.5340    -2.1620     0.3010 h1         1 5GD       0.043033
     44 H23         -8.4720    -1.8020    -1.4460 h1         1 5GD       0.043033
     45 H24         -8.5730    -3.4840    -0.8850 h1         1 5GD       0.043033
     46 H25         -1.2120     2.0690     0.5560 hn         1 5GD       0.330500
     47 H27          9.4930     1.6340     0.1350 hc         1 5GD       0.045950
     48 H28         10.1370     0.5470    -1.0960 hc         1 5GD       0.045950
     49 H29          8.2920     1.0830    -2.5390 hc         1 5GD       0.045950
     50 H30          7.7970     2.2820    -1.3450 hc         1 5GD       0.045950
     51 O2           4.1580    -0.7390     0.0410 os         1 5GD      -0.375100
     52 C19          2.4700    -2.9750     0.7720 c3         1 5GD      -0.042300
     53 C22         -7.4660     2.4370     0.3760 c3         1 5GD       0.147900
     54 H10          6.8370    -0.6030    -1.6560 h1         1 5GD       0.038200
     55 H12          3.3230    -3.2520     0.1420 hc         1 5GD       0.047367
     56 H13          2.7980    -3.0070     1.8170 hc         1 5GD       0.047367
     57 H14          1.7070    -3.7520     0.6410 hc         1 5GD       0.047367
     58 H18         -7.9210     2.2160    -0.5980 h1         1 5GD       0.044367
     59 H19         -7.9820     1.8550     1.1500 h1         1 5GD       0.044367
     60 H20         -7.6240     3.5010     0.5900 h1         1 5GD       0.044367
@<TRIPOS>BOND
     1     1     3 ar  
     2     1    17 ar  
     3     1    24 1   
     4     2    16 2   
     5     2    17 1   
     6     2    22 1   
     7     3     4 ar  
     8     3    29 1   
     9     4    19 ar  
    10     4    20 1   
    11     5     7 ar  
    12     5    25 ar  
    13     5    30 1   
    14     6    10 1   
    15     6    31 1   
    16     6    32 1   
    17     6    51 1   
    18     7     8 ar  
    19     7     9 1   
    20     8    15 ar  
    21     8    51 1   
    22     9    33 1   
    23     9    34 1   
    24     9    35 1   
    25    10    26 1   
    26    10    36 1   
    27    10    37 1   
    28    11    26 1   
    29    11    28 1   
    30    11    38 1   
    31    11    54 1   
    32    12    15 ar  
    33    12    25 ar  
    34    12    39 1   
    35    13    17 ar  
    36    13    18 1   
    37    13    19 ar  
    38    14    26 1   
    39    14    27 1   
    40    14    40 1   
    41    14    41 1   
    42    15    52 1   
    43    18    53 1   
    44    19    42 1   
    45    20    21 1   
    46    21    43 1   
    47    21    44 1   
    48    21    45 1   
    49    22    23 1   
    50    22    46 1   
    51    23    24 2   
    52    23    25 1   
    53    27    28 1   
    54    27    47 1   
    55    27    48 1   
    56    28    49 1   
    57    28    50 1   
    58    52    55 1   
    59    52    56 1   
    60    52    57 1   
    61    53    58 1   
    62    53    59 1   
    63    53    60 1   
@<TRIPOS>SUBSTRUCTURE
     1 5GD         1 TEMP              0 ****  ****    0 ROOT
