@<TRIPOS>MOLECULE
5GD
   60    63     1     0     0
SMALL
abcg2


@<TRIPOS>ATOM
      1 C3          -3.5860    -0.5450    -0.1560 ca         1 5GD       0.262400
      2 C5          -3.2760     1.8200     0.4600 c          1 5GD       0.593600
      3 C2          -4.3880    -1.6470    -0.4330 ca         1 5GD      -0.194000
      4 C1          -5.7670    -1.5200    -0.3980 ca         1 5GD       0.221100
      5 C8           0.8720     1.1410    -0.2270 ca         1 5GD      -0.069500
      6 C12          4.7740    -0.3790     1.1750 c3         1 5GD       0.165600
      7 C9           2.2500     0.9590    -0.2520 ca         1 5GD      -0.094800
      8 C11          2.7510    -0.3240    -0.0270 ca         1 5GD       0.123100
      9 C10          3.1680     2.1120    -0.5310 c3         1 5GD      -0.042300
     10 C13          6.1910    -0.8950     1.0600 c3         1 5GD       0.172800
     11 C14          6.8800     0.1000    -1.0800 c5         1 5GD       0.162300
     12 C20          0.5360    -1.1960     0.2090 ca         1 5GD      -0.069500
     13 C21         -5.5700     0.8150     0.1840 ca         1 5GD       0.254100
     14 C17          8.4880    -0.4340     0.4920 c5         1 5GD       0.162300
     15 C18          1.9050    -1.4150     0.1990 ca         1 5GD      -0.094800
     16 O1          -3.5850     2.9570     0.7710 o          1 5GD      -0.526000
     17 C4          -4.1600     0.7080     0.1590 ca         1 5GD      -0.279600
     18 O3          -6.0880     2.0070     0.4800 os         1 5GD      -0.308100
     19 C23         -6.3630    -0.2910    -0.0920 ca         1 5GD      -0.332000
     20 O           -6.4710    -2.6240    -0.6700 os         1 5GD      -0.336100
     21 C           -7.8860    -2.5780    -0.6410 c3         1 5GD       0.149900
     22 N           -1.9330     1.4850     0.3830 ns         1 5GD      -0.435400
     23 C6          -1.4540     0.2570     0.0530 cc         1 5GD       0.577500
     24 N1          -2.2270    -0.7380    -0.2110 nd         1 5GD      -0.647100
     25 C7           0.0070     0.0780     0.0140 ca         1 5GD      -0.155900
     26 N2           7.1010    -0.0250     0.3550 n3         1 5GD      -0.723600
     27 C16          9.2160     0.4750    -0.4860 c5         1 5GD      -0.081400
     28 C15          8.2040     0.6520    -1.6330 c5         1 5GD      -0.081400
     29 H1          -3.9250    -2.5950    -0.6740 ha         1 5GD       0.148000
     30 H2           0.4900     2.1350    -0.4310 ha         1 5GD       0.128000
     31 H3           4.2550    -0.9480     1.9530 h1         1 5GD       0.039200
     32 H4           4.7770     0.6730     1.4790 h1         1 5GD       0.039200
     33 H5           3.7000     2.4290     0.3670 hc         1 5GD       0.047367
     34 H6           3.9190     1.8630    -1.2810 hc         1 5GD       0.047367
     35 H7           2.6060     2.9710    -0.8930 hc         1 5GD       0.047367
     36 H8           6.5610    -1.0040     2.0830 h1         1 5GD       0.038700
     37 H9           6.1640    -1.9130     0.6310 h1         1 5GD       0.038700
     38 H11          6.0370     0.7560    -1.2940 h1         1 5GD       0.038200
     39 H15         -0.1360    -2.0280     0.3810 ha         1 5GD       0.128000
     40 H16          8.8260    -0.3220     1.5250 h1         1 5GD       0.038200
     41 H17          8.6350    -1.4910     0.2110 h1         1 5GD       0.038200
     42 H21         -7.4380    -0.2010    -0.0710 ha         1 5GD       0.124000
     43 H22         -8.2650    -2.3080     0.3470 h1         1 5GD       0.043033
     44 H23         -8.2860    -1.8800    -1.3800 h1         1 5GD       0.043033
     45 H24         -8.2290    -3.5790    -0.8860 h1         1 5GD       0.043033
     46 H25         -1.2860     2.2190     0.6400 hn         1 5GD       0.330500
     47 H27          9.4370     1.4350    -0.0150 hc         1 5GD       0.045950
     48 H28         10.1630     0.0490    -0.8170 hc         1 5GD       0.045950
     49 H29          8.5070     0.1030    -2.5250 hc         1 5GD       0.045950
     50 H30          8.1140     1.7000    -1.9220 hc         1 5GD       0.045950
     51 O2           4.0930    -0.5400    -0.0710 os         1 5GD      -0.375100
     52 C19          2.4680    -2.7910     0.4010 c3         1 5GD      -0.042300
     53 C22         -7.4950     2.1610     0.5290 c3         1 5GD       0.147900
     54 H10          6.6520    -0.8760    -1.5380 h1         1 5GD       0.038200
     55 H12          3.0670    -3.1060    -0.4540 hc         1 5GD       0.047367
     56 H13          3.1110    -2.8470     1.2810 hc         1 5GD       0.047367
     57 H14          1.6680    -3.5170     0.5330 hc         1 5GD       0.047367
     58 H18         -7.9610     1.9500    -0.4360 h1         1 5GD       0.044367
     59 H19         -7.9470     1.5220     1.2910 h1         1 5GD       0.044367
     60 H20         -7.6770     3.2000     0.7880 h1         1 5GD       0.044367
@<TRIPOS>BOND
     1     1     3 ar  
     2     1    17 ar  
     3     1    24 1   
     4     2    16 2   
     5     2    17 1   
     6     2    22 1   
     7     3     4 ar  
     8     3    29 1   
     9     4    19 ar  
    10     4    20 1   
    11     5     7 ar  
    12     5    25 ar  
    13     5    30 1   
    14     6    10 1   
    15     6    31 1   
    16     6    32 1   
    17     6    51 1   
    18     7     8 ar  
    19     7     9 1   
    20     8    15 ar  
    21     8    51 1   
    22     9    33 1   
    23     9    34 1   
    24     9    35 1   
    25    10    26 1   
    26    10    36 1   
    27    10    37 1   
    28    11    26 1   
    29    11    28 1   
    30    11    38 1   
    31    11    54 1   
    32    12    15 ar  
    33    12    25 ar  
    34    12    39 1   
    35    13    17 ar  
    36    13    18 1   
    37    13    19 ar  
    38    14    26 1   
    39    14    27 1   
    40    14    40 1   
    41    14    41 1   
    42    15    52 1   
    43    18    53 1   
    44    19    42 1   
    45    20    21 1   
    46    21    43 1   
    47    21    44 1   
    48    21    45 1   
    49    22    23 1   
    50    22    46 1   
    51    23    24 2   
    52    23    25 1   
    53    27    28 1   
    54    27    47 1   
    55    27    48 1   
    56    28    49 1   
    57    28    50 1   
    58    52    55 1   
    59    52    56 1   
    60    52    57 1   
    61    53    58 1   
    62    53    59 1   
    63    53    60 1   
@<TRIPOS>SUBSTRUCTURE
     1 5GD         1 TEMP              0 ****  ****    0 ROOT
