@<TRIPOS>MOLECULE
5GG
   37    36     1     0     0
SMALL
bcc


@<TRIPOS>ATOM
      1 N           37.0430    83.2190    40.6080 n8         1 5GG      -0.889800
      2 CA          37.8430    83.4750    39.4180 c3         1 5GG       0.012500
      3 C           39.3450    83.7720    39.6760 c          1 5GG       0.903600
      4 O           39.7120    83.9070    40.8600 o          1 5GG      -0.841300
      5 CB          37.2230    84.6110    38.6010 c3         1 5GG      -0.050400
      6 CG          35.7820    84.3660    38.1720 c3         1 5GG      -0.071400
      7 CD          35.2480    85.4610    37.2580 c3         1 5GG      -0.080400
      8 CE          33.7930    85.2460    36.8720 c3         1 5GG       0.156800
      9 NZ          33.3100    86.2940    35.9940 n7         1 5GG      -0.808200
     10 CH          31.4620    87.2130    34.6590 c3         1 5GG      -0.080400
     11 CI          30.0060    87.0550    34.2430 c3         1 5GG      -0.078400
     12 CJ          29.5470    88.1480    33.2910 c3         1 5GG       0.148800
     13 CF          31.9250    86.1130    35.6010 c3         1 5GG       0.162800
     14 NY          28.1470    87.9770    32.9300 n8         1 5GG      -0.886800
     15 O1          40.0640    83.8590    38.6580 o          1 5GG      -0.841300
     16 H1          37.4500    82.4390    41.1090 hn         1 5GG       0.324800
     17 H2          37.1600    84.0050    41.2380 hn         1 5GG       0.324800
     18 H4          37.7970    82.5700    38.7970 h1         1 5GG       0.035700
     19 H5          37.8400    84.7720    37.7140 hc         1 5GG       0.038200
     20 H6          37.2730    85.5420    39.1800 hc         1 5GG       0.038200
     21 H7          35.1410    84.2840    39.0530 hc         1 5GG       0.034700
     22 H8          35.7170    83.4000    37.6580 hc         1 5GG       0.034700
     23 H9          35.8620    85.5090    36.3510 hc         1 5GG       0.039200
     24 H10         35.3460    86.4350    37.7480 hc         1 5GG       0.039200
     25 H11         33.1770    85.2500    37.7780 h1         1 5GG       0.024700
     26 H12         33.6780    84.2410    36.4320 h1         1 5GG       0.024700
     27 H13         33.8850    86.3050    35.1580 hn         1 5GG       0.345800
     28 H15         32.0980    87.2150    33.7660 hc         1 5GG       0.042700
     29 H16         31.6070    88.1830    35.1440 hc         1 5GG       0.042700
     30 H17         29.3630    87.0600    35.1290 hc         1 5GG       0.044200
     31 H18         29.8670    86.0790    33.7650 hc         1 5GG       0.044200
     32 H19         30.2240    88.1690    32.4240 h1         1 5GG       0.026200
     33 H20         29.6550    89.1190    33.7840 h1         1 5GG       0.026200
     34 H21         31.3090    86.1310    36.5070 h1         1 5GG       0.024200
     35 H22         31.7440    85.1320    35.1310 h1         1 5GG       0.024200
     36 H23         27.8630    88.7280    32.3130 hn         1 5GG       0.332800
     37 H24         28.0450    87.1280    32.3870 hn         1 5GG       0.332800
@<TRIPOS>BOND
     1     1     2 1   
     2     1    16 1   
     3     1    17 1   
     4     2     3 1   
     5     2     5 1   
     6     2    18 1   
     7     3     4 1   
     8     3    15 1   
     9     5     6 1   
    10     5    19 1   
    11     5    20 1   
    12     6     7 1   
    13     6    21 1   
    14     6    22 1   
    15     7     8 1   
    16     7    23 1   
    17     7    24 1   
    18     8     9 1   
    19     8    25 1   
    20     8    26 1   
    21     9    13 1   
    22     9    27 1   
    23    10    11 1   
    24    10    13 1   
    25    10    28 1   
    26    10    29 1   
    27    11    12 1   
    28    11    30 1   
    29    11    31 1   
    30    12    14 1   
    31    12    32 1   
    32    12    33 1   
    33    13    34 1   
    34    13    35 1   
    35    14    36 1   
    36    14    37 1   
@<TRIPOS>SUBSTRUCTURE
     1 5GG         1 TEMP              0 ****  ****    0 ROOT
