@<TRIPOS>MOLECULE
5GH
   52    53     1     0     0
SMALL
No Charge or Current Charge


@<TRIPOS>ATOM
      1 N1          -4.7630     2.5500     1.1690 ns         1 5GH      -0.514900
      2 N           -0.1920     0.7090    -0.7760 ns         1 5GH      -0.504900
      3 C10         -1.6140     0.4260    -0.6010 c3         1 5GH       0.139900
      4 C11         -2.4770     1.6470    -1.0110 c3         1 5GH      -0.082400
      5 C12         -4.0070     1.4960    -0.7580 c5         1 5GH      -0.152700
      6 C13         -4.3080     1.3340     0.7370 c          1 5GH       0.563000
      7 O1          -4.3580     0.3180     1.4100 o          1 5GH      -0.543000
      8 C25         -4.7530     3.6020     0.1540 c5         1 5GH       0.101000
      9 C26         -4.8340     2.7530    -1.1450 c5         1 5GH      -0.092400
     10 C14         -1.9400    -0.8270    -1.3950 c2         1 5GH      -0.162200
     11 C15         -1.6610    -2.1160    -1.0700 ce         1 5GH      -0.245200
     12 H1          -5.0910     2.6420     2.1230 hn         1 5GH       0.330500
     13 H2           0.2740     0.3330    -1.5920 hn         1 5GH       0.308500
     14 H5          -1.7940     0.2280     0.4660 h1         1 5GH       0.128700
     15 H6          -2.1070     2.5270    -0.4700 hc         1 5GH       0.050700
     16 H7          -2.3020     1.8550    -2.0740 hc         1 5GH       0.050700
     17 H8          -4.3350     0.5940    -1.2850 hc         1 5GH       0.079700
     18 H9          -5.6010     4.2930     0.2480 h1         1 5GH       0.044700
     19 H10         -3.8240     4.1870     0.1970 h1         1 5GH       0.044700
     20 H11         -4.4480     3.2800    -2.0250 hc         1 5GH       0.056700
     21 H12         -5.8750     2.4810    -1.3600 hc         1 5GH       0.056700
     22 H13         -2.4500    -0.6230    -2.3380 ha         1 5GH       0.170000
     23 H15         -1.9570    -2.9110    -1.7520 ha         1 5GH       0.196000
     24 C2           2.0640     1.5110    -0.2550 c3         1 5GH      -0.155400
     25 C3           2.9380     0.5730     0.6060 c3         1 5GH      -0.020100
     26 C4           4.4100     0.6540     0.2230 ca         1 5GH      -0.083300
     27 C5           5.2460     1.6190     0.8180 ca         1 5GH      -0.108000
     28 C6           6.6030     1.6970     0.4620 ca         1 5GH      -0.110000
     29 C7           7.1330     0.8120    -0.4920 ca         1 5GH      -0.112000
     30 C8           6.3030    -0.1510    -1.0900 ca         1 5GH      -0.110000
     31 C9           4.9450    -0.2300    -0.7340 ca         1 5GH      -0.108000
     32 O2           0.1300     1.8890     1.1470 o          1 5GH      -0.590100
     33 C16         -0.9640    -2.6030     0.1580 c          1 5GH       0.590300
     34 O3          -0.8540    -3.9670     0.1370 os         1 5GH      -0.453100
     35 C18         -0.2010    -4.6090     1.2460 c3         1 5GH       0.167600
     36 C19         -0.2090    -6.1220     0.9740 c3         1 5GH      -0.097100
     37 O4          -0.5440    -1.8940     1.0620 o          1 5GH      -0.469000
     38 H3           2.2040     1.2430    -1.3090 hc         1 5GH       0.055700
     39 H4           2.3930     2.5430    -0.0860 hc         1 5GH       0.055700
     40 H14          2.8100     0.8280     1.6660 hc         1 5GH       0.065700
     41 H16          2.5750    -0.4580     0.4980 hc         1 5GH       0.065700
     42 H17          4.8430     2.3100     1.5560 ha         1 5GH       0.111500
     43 H18          7.2450     2.4450     0.9250 ha         1 5GH       0.111000
     44 H19          8.1830     0.8730    -0.7680 ha         1 5GH       0.111000
     45 H20          6.7110    -0.8370    -1.8300 ha         1 5GH       0.111000
     46 H21          4.3090    -0.9770    -1.2040 ha         1 5GH       0.111500
     47 H22          0.8360    -4.2600     1.3460 h1         1 5GH       0.049200
     48 H23         -0.7310    -4.4030     2.1850 h1         1 5GH       0.049200
     49 H24         -1.2370    -6.4930     0.8860 hc         1 5GH       0.045367
     50 H25          0.3280    -6.3510     0.0460 hc         1 5GH       0.045367
     51 H26          0.2800    -6.6570     1.7960 hc         1 5GH       0.045367
     52 C1           0.5870     1.3930     0.1280 c          1 5GH       0.604100
@<TRIPOS>BOND
     1     1     6 1   
     2     1     8 1   
     3     1    12 1   
     4     2     3 1   
     5     2    13 1   
     6     2    52 1   
     7     3     4 1   
     8     3    10 1   
     9     3    14 1   
    10     4     5 1   
    11     4    15 1   
    12     4    16 1   
    13     5     6 1   
    14     5     9 1   
    15     5    17 1   
    16     6     7 2   
    17     8     9 1   
    18     8    18 1   
    19     8    19 1   
    20     9    20 1   
    21     9    21 1   
    22    10    11 2   
    23    10    22 1   
    24    11    23 1   
    25    11    33 1   
    26    24    25 1   
    27    24    38 1   
    28    24    39 1   
    29    24    52 1   
    30    25    26 1   
    31    25    40 1   
    32    25    41 1   
    33    26    27 ar  
    34    26    31 ar  
    35    27    28 ar  
    36    27    42 1   
    37    28    29 ar  
    38    28    43 1   
    39    29    30 ar  
    40    29    44 1   
    41    30    31 ar  
    42    30    45 1   
    43    31    46 1   
    44    32    52 2   
    45    33    34 1   
    46    33    37 2   
    47    34    35 1   
    48    35    36 1   
    49    35    47 1   
    50    35    48 1   
    51    36    49 1   
    52    36    50 1   
    53    36    51 1   
@<TRIPOS>SUBSTRUCTURE
     1 5GH         1 TEMP              0 ****  ****    0 ROOT
