@<TRIPOS>MOLECULE
5GH
   52    53     1     0     0
SMALL
bcc


@<TRIPOS>ATOM
      1 N1          -4.4240     2.5840     1.3160 ns         1 5GH      -0.581900
      2 N           -0.1000     0.3750    -0.7740 ns         1 5GH      -0.571900
      3 C10         -1.5250     0.2090    -0.5590 c3         1 5GH       0.139900
      4 C11         -2.2800     1.5030    -0.8750 c3         1 5GH      -0.082400
      5 C12         -3.7870     1.4430    -0.5940 c5         1 5GH      -0.152700
      6 C13         -4.0440     1.3630     0.9050 c          1 5GH       0.705500
      7 O1          -3.9020     0.3790     1.6160 o          1 5GH      -0.618500
      8 C25         -4.4640     3.5900     0.2760 c5         1 5GH       0.101000
      9 C26         -4.5030     2.7350    -0.9940 c5         1 5GH      -0.092400
     10 C14         -2.0180    -0.9180    -1.4280 c2         1 5GH      -0.112200
     11 C15         -1.9090    -2.2310    -1.2240 ce         1 5GH      -0.195200
     12 H1          -4.5310     2.8080     2.2930 hn         1 5GH       0.330500
     13 H2           0.2700     0.1830    -1.6920 hn         1 5GH       0.308500
     14 H5          -1.6660    -0.0480     0.4880 h1         1 5GH       0.128700
     15 H6          -1.8290     2.3190    -0.3030 hc         1 5GH       0.050700
     16 H7          -2.1380     1.7470    -1.9320 hc         1 5GH       0.050700
     17 H8          -4.2230     0.5710    -1.0890 hc         1 5GH       0.079700
     18 H9          -5.3430     4.2260     0.3770 h1         1 5GH       0.044700
     19 H10         -3.5800     4.2320     0.3110 h1         1 5GH       0.044700
     20 H11         -4.0430     3.2370    -1.8440 hc         1 5GH       0.056700
     21 H12         -5.5400     2.5200    -1.2570 hc         1 5GH       0.056700
     22 H13         -2.5100    -0.6160    -2.3490 ha         1 5GH       0.120000
     23 H15         -2.3180    -2.9060    -1.9660 ha         1 5GH       0.146000
     24 C2           2.1760     0.9820    -0.2760 c3         1 5GH      -0.155400
     25 C3           3.1740     0.9240     0.8780 c3         1 5GH      -0.020100
     26 C4           4.5810     1.1150     0.3850 ca         1 5GH      -0.083300
     27 C5           5.1270     2.3920     0.2660 ca         1 5GH      -0.126000
     28 C6           6.4120     2.5750    -0.2270 ca         1 5GH      -0.128000
     29 C7           7.1750     1.4800    -0.6100 ca         1 5GH      -0.130000
     30 C8           6.6430     0.2020    -0.4950 ca         1 5GH      -0.128000
     31 C9           5.3560     0.0250    -0.0030 ca         1 5GH      -0.126000
     32 O2           0.3670     1.1270     1.3020 o          1 5GH      -0.590100
     33 C16         -1.2660    -2.8570    -0.0520 c          1 5GH       0.639300
     34 O3          -1.3910    -4.1780    -0.1050 os         1 5GH      -0.429900
     35 C18         -0.8270    -4.9530     0.9630 c3         1 5GH       0.144400
     36 C19         -1.1080    -6.4070     0.6740 c3         1 5GH      -0.097100
     37 O4          -0.6970    -2.2760     0.8420 o          1 5GH      -0.518000
     38 H3           2.4180     0.2230    -1.0230 hc         1 5GH       0.055700
     39 H4           2.2600     1.9470    -0.7880 hc         1 5GH       0.055700
     40 H14          2.9310     1.6930     1.6130 hc         1 5GH       0.065700
     41 H16          3.0890    -0.0390     1.3870 hc         1 5GH       0.065700
     42 H17          4.5410     3.2540     0.5660 ha         1 5GH       0.129500
     43 H18          6.8190     3.5750    -0.3100 ha         1 5GH       0.129000
     44 H19          8.1780     1.6210    -0.9920 ha         1 5GH       0.129000
     45 H20          7.2300    -0.6600    -0.7850 ha         1 5GH       0.129000
     46 H21          4.9500    -0.9760     0.0880 ha         1 5GH       0.129500
     47 H22          0.2480    -4.7680     1.0250 h1         1 5GH       0.049200
     48 H23         -1.2740    -4.6500     1.9120 h1         1 5GH       0.049200
     49 H24         -2.1780    -6.6060     0.6220 hc         1 5GH       0.045367
     50 H25         -0.6470    -6.7270    -0.2610 hc         1 5GH       0.045367
     51 H26         -0.6940    -7.0180     1.4760 hc         1 5GH       0.045367
     52 C1           0.7360     0.8300     0.1750 c          1 5GH       0.671100
@<TRIPOS>BOND
     1     1     6 1   
     2     1     8 1   
     3     1    12 1   
     4     2     3 1   
     5     2    13 1   
     6     2    52 1   
     7     3     4 1   
     8     3    10 1   
     9     3    14 1   
    10     4     5 1   
    11     4    15 1   
    12     4    16 1   
    13     5     6 1   
    14     5     9 1   
    15     5    17 1   
    16     6     7 2   
    17     8     9 1   
    18     8    18 1   
    19     8    19 1   
    20     9    20 1   
    21     9    21 1   
    22    10    11 2   
    23    10    22 1   
    24    11    23 1   
    25    11    33 1   
    26    24    25 1   
    27    24    38 1   
    28    24    39 1   
    29    24    52 1   
    30    25    26 1   
    31    25    40 1   
    32    25    41 1   
    33    26    27 ar  
    34    26    31 ar  
    35    27    28 ar  
    36    27    42 1   
    37    28    29 ar  
    38    28    43 1   
    39    29    30 ar  
    40    29    44 1   
    41    30    31 ar  
    42    30    45 1   
    43    31    46 1   
    44    32    52 2   
    45    33    34 1   
    46    33    37 2   
    47    34    35 1   
    48    35    36 1   
    49    35    47 1   
    50    35    48 1   
    51    36    49 1   
    52    36    50 1   
    53    36    51 1   
@<TRIPOS>SUBSTRUCTURE
     1 5GH         1 TEMP              0 ****  ****    0 ROOT
