@<TRIPOS>MOLECULE
5GI
   57    59     1     0     0
SMALL
abcg2


@<TRIPOS>ATOM
      1 C1           0.2720     0.4160    -0.5360 c3         1 5GI       0.033700
      2 C2           0.7230     1.5220    -1.5180 c3         1 5GI      -0.045100
      3 C3          -0.9620    -0.2670    -1.1100 c          1 5GI       0.594100
      4 C4           6.1310    -3.5570     1.5930 c3         1 5GI      -0.135400
      5 C5           1.9910     2.1780    -1.0560 ca         1 5GI      -0.101300
      6 C6           3.2330     1.6850    -1.4490 ca         1 5GI      -0.074000
      7 C7           1.9530     3.2560    -0.1770 ca         1 5GI      -0.074000
      8 C8           4.4120     2.2450    -0.9770 ca         1 5GI      -0.148000
      9 C9           4.3300     3.3120    -0.1040 ca         1 5GI       0.174000
     10 C10          3.1180     3.8340     0.3040 ca         1 5GI      -0.148000
     11 C12          3.2190    -1.5710     0.6670 cc         1 5GI       0.222500
     12 C13         -6.3290    -1.9670     2.3760 c6         1 5GI       0.113000
     13 C14          4.1290    -1.8970     1.6970 cc         1 5GI      -0.199000
     14 C15         -3.4200     0.6340    -2.8650 c          1 5GI       0.556900
     15 C16          4.9530    -2.8030     1.1150 cd         1 5GI       0.172300
     16 C17         -4.9120    -2.3440     2.0010 c6         1 5GI      -0.093400
     17 C18         -3.3520     0.0100    -1.4880 c3         1 5GI      -0.018300
     18 C19         -4.5740     0.4340    -0.6730 c3         1 5GI      -0.069400
     19 C20         -4.6290    -0.2170     0.7110 c6         1 5GI      -0.135700
     20 C21         -5.8420     0.3180     1.4640 c          1 5GI       0.565000
     21 C22         -4.5640    -1.7410     0.6520 c6         1 5GI      -0.076400
     22 F1           5.4650     3.8630     0.3590 f          1 5GI      -0.180000
     23 N1           1.3080    -0.5580    -0.3370 ns         1 5GI      -0.479900
     24 N2           3.4850    -2.2230    -0.4280 nd         1 5GI      -0.357300
     25 N3          -6.5350    -0.5380     2.2290 ns         1 5GI      -0.505900
     26 N4          -2.1250     0.3380    -0.8170 ns         1 5GI      -0.486900
     27 O1           4.5610    -2.9920    -0.1540 os         1 5GI      -0.061700
     28 O3          -0.8730    -1.2630    -1.8080 o          1 5GI      -0.594100
     29 O4           1.9520     0.0840     1.7480 o          1 5GI      -0.585100
     30 O5          -6.1490     1.5040     1.3940 o          1 5GI      -0.579000
     31 H1           0.0370     0.8690     0.4280 h1         1 5GI       0.091700
     32 H2           0.8620     1.0800    -2.5070 hc         1 5GI       0.067200
     33 H3          -0.0770     2.2590    -1.6110 hc         1 5GI       0.067200
     34 H4           6.0060    -4.6290     1.4380 hc         1 5GI       0.064367
     35 H5           7.0360    -3.2470     1.0680 hc         1 5GI       0.064367
     36 H6           6.2750    -3.3780     2.6550 hc         1 5GI       0.064367
     37 H7           3.2890     0.8530    -2.1390 ha         1 5GI       0.116500
     38 H8           0.9980     3.6560     0.1410 ha         1 5GI       0.116500
     39 H9           5.3740     1.8580    -1.2840 ha         1 5GI       0.132000
     40 H10          3.0840     4.6750     0.9860 ha         1 5GI       0.132000
     41 H11         -7.0380    -2.5140     1.7470 h1         1 5GI       0.042200
     42 H12         -6.5420    -2.2370     3.4100 h1         1 5GI       0.042200
     43 H13          4.1620    -1.5230     2.7050 ha         1 5GI       0.170000
     44 H14         -4.3490     0.4070    -3.4160 h4         1 5GI      -0.003800
     45 H16         -4.2150    -1.9840     2.7630 hc         1 5GI       0.056700
     46 H17         -4.8260    -3.4310     1.9750 hc         1 5GI       0.056700
     47 H18         -3.3950    -1.0720    -1.6530 h1         1 5GI       0.097700
     48 H19         -4.5840     1.5210    -0.5730 hc         1 5GI       0.066700
     49 H20         -5.4680     0.1610    -1.2400 hc         1 5GI       0.066700
     50 H21         -3.7640     0.1330     1.2890 hc         1 5GI       0.076700
     51 H23         -3.5620    -2.0550     0.3530 hc         1 5GI       0.053700
     52 H24         -5.2550    -2.1170    -0.1100 hc         1 5GI       0.053700
     53 H25          1.5160    -1.1800    -1.1060 hn         1 5GI       0.351500
     54 H26         -7.3390    -0.1450     2.6970 hn         1 5GI       0.317500
     55 H28         -2.0980     1.2030    -0.2980 hn         1 5GI       0.321500
     56 C11          2.0960    -0.5960     0.7470 c          1 5GI       0.533600
     57 O2          -2.5510     1.3130    -3.3450 o          1 5GI      -0.501100
@<TRIPOS>BOND
     1     1     2 1   
     2     1     3 1   
     3     1    23 1   
     4     1    31 1   
     5     2     5 1   
     6     2    32 1   
     7     2    33 1   
     8     3    26 1   
     9     3    28 2   
    10     4    15 1   
    11     4    34 1   
    12     4    35 1   
    13     4    36 1   
    14     5     6 ar  
    15     5     7 ar  
    16     6     8 ar  
    17     6    37 1   
    18     7    10 ar  
    19     7    38 1   
    20     8     9 ar  
    21     8    39 1   
    22     9    10 ar  
    23     9    22 1   
    24    10    40 1   
    25    11    13 1   
    26    11    24 2   
    27    11    56 1   
    28    12    16 1   
    29    12    25 1   
    30    12    41 1   
    31    12    42 1   
    32    13    15 2   
    33    13    43 1   
    34    14    17 1   
    35    14    44 1   
    36    14    57 2   
    37    15    27 1   
    38    16    21 1   
    39    16    45 1   
    40    16    46 1   
    41    17    18 1   
    42    17    26 1   
    43    17    47 1   
    44    18    19 1   
    45    18    48 1   
    46    18    49 1   
    47    19    20 1   
    48    19    21 1   
    49    19    50 1   
    50    20    25 1   
    51    20    30 2   
    52    21    51 1   
    53    21    52 1   
    54    23    53 1   
    55    23    56 1   
    56    24    27 1   
    57    25    54 1   
    58    26    55 1   
    59    29    56 2   
@<TRIPOS>SUBSTRUCTURE
     1 5GI         1 TEMP              0 ****  ****    0 ROOT
