@<TRIPOS>MOLECULE
5GI
   57    59     1     0     0
SMALL
No Charge or Current Charge


@<TRIPOS>ATOM
      1 C1           0.1790     0.6610    -0.6170 c3         1 5GI       0.033700
      2 C2           0.7950     1.5240    -1.7500 c3         1 5GI      -0.045100
      3 C3          -1.1770     0.0390    -1.0560 c          1 5GI       0.594100
      4 C4           5.6200    -3.4190     2.5950 c3         1 5GI      -0.135400
      5 C5           2.1480     2.1270    -1.3860 ca         1 5GI      -0.101300
      6 C6           3.3410     1.5110    -1.8170 ca         1 5GI      -0.074000
      7 C7           2.2130     3.2970    -0.6040 ca         1 5GI      -0.074000
      8 C8           4.5870     2.0600    -1.4640 ca         1 5GI      -0.148000
      9 C9           4.6420     3.2250    -0.6850 ca         1 5GI       0.174000
     10 C10          3.4600     3.8460    -0.2550 ca         1 5GI      -0.148000
     11 C12          2.9110    -1.4960     1.0070 cc         1 5GI       0.222500
     12 C13         -5.9420    -2.6350     2.1000 c6         1 5GI       0.113000
     13 C14          3.8850    -1.5740     2.0250 cc         1 5GI      -0.199000
     14 C15         -4.1370     1.5740    -2.6490 c          1 5GI       0.556900
     15 C16          4.5010    -2.7650     1.8380 cd         1 5GI       0.172300
     16 C17         -4.7050    -3.0020     1.2560 c6         1 5GI      -0.093400
     17 C18         -3.6120     0.5970    -1.5640 c3         1 5GI      -0.018300
     18 C19         -4.5530     0.5760    -0.3290 c3         1 5GI      -0.069400
     19 C20         -4.2710    -0.5420     0.7320 c6         1 5GI      -0.135700
     20 C21         -5.0810    -0.2530     2.0260 c          1 5GI       0.565000
     21 C22         -4.5030    -1.9630     0.1380 c6         1 5GI      -0.076400
     22 F1           5.8390     3.7510    -0.3460 f          1 5GI      -0.180000
     23 N1           1.1190    -0.4020    -0.1870 ns         1 5GI      -0.479900
     24 N2           2.9050    -2.5690     0.2190 nd         1 5GI      -0.357300
     25 N3          -5.9500    -1.2170     2.4850 ns         1 5GI      -0.505900
     26 N4          -2.2180     0.9390    -1.1830 ns         1 5GI      -0.486900
     27 O1           3.9480    -3.4060     0.7620 os         1 5GI      -0.061700
     28 O3          -1.3210    -1.1560    -1.2790 o          1 5GI      -0.594100
     29 O4           2.0300     0.6700     1.6100 o          1 5GI      -0.585100
     30 O5          -4.9580     0.7910     2.6460 o          1 5GI      -0.579000
     31 H1          -0.0380     1.3100     0.2420 h1         1 5GI       0.091700
     32 H2           0.8920     0.9060    -2.6520 hc         1 5GI       0.067200
     33 H3           0.0960     2.3270    -2.0150 hc         1 5GI       0.067200
     34 H4           5.3000    -4.3820     3.0110 hc         1 5GI       0.064367
     35 H5           6.4800    -3.6020     1.9410 hc         1 5GI       0.064367
     36 H6           5.9560    -2.7880     3.4260 hc         1 5GI       0.064367
     37 H7           3.3040     0.6050    -2.4170 ha         1 5GI       0.116500
     38 H8           1.2990     3.7790    -0.2630 ha         1 5GI       0.116500
     39 H9           5.5070     1.5840    -1.7930 ha         1 5GI       0.132000
     40 H10          3.5110     4.7480     0.3500 ha         1 5GI       0.132000
     41 H11         -6.8540    -2.8350     1.5200 h1         1 5GI       0.042200
     42 H12         -5.9760    -3.2560     3.0070 h1         1 5GI       0.042200
     43 H13          4.0840    -0.8290     2.7850 ha         1 5GI       0.170000
     44 H14         -5.1100     1.2910    -3.1080 h4         1 5GI      -0.003800
     45 H16         -3.8130    -3.0380     1.8960 hc         1 5GI       0.056700
     46 H17         -4.8290    -4.0070     0.8290 hc         1 5GI       0.056700
     47 H18         -3.6280    -0.3930    -2.0360 h1         1 5GI       0.097700
     48 H19         -4.4950     1.5630     0.1480 hc         1 5GI       0.066700
     49 H20         -5.5900     0.4810    -0.6760 hc         1 5GI       0.066700
     50 H21         -3.2190    -0.4300     1.0250 hc         1 5GI       0.076700
     51 H23         -3.6580    -2.2580    -0.4970 hc         1 5GI       0.053700
     52 H24         -5.3920    -1.9630    -0.5090 hc         1 5GI       0.053700
     53 H25          1.1430    -1.2690    -0.7160 hn         1 5GI       0.351500
     54 H26         -6.4860    -0.9580     3.3050 hn         1 5GI       0.317500
     55 H28         -1.9990     1.9130    -1.0040 hn         1 5GI       0.321500
     56 C11          2.0090    -0.3060     0.8690 c          1 5GI       0.533600
     57 O2          -3.5480     2.5920    -3.0030 o          1 5GI      -0.501100
@<TRIPOS>BOND
     1     1     2 1   
     2     1     3 1   
     3     1    23 1   
     4     1    31 1   
     5     2     5 1   
     6     2    32 1   
     7     2    33 1   
     8     3    26 1   
     9     3    28 2   
    10     4    15 1   
    11     4    34 1   
    12     4    35 1   
    13     4    36 1   
    14     5     6 ar  
    15     5     7 ar  
    16     6     8 ar  
    17     6    37 1   
    18     7    10 ar  
    19     7    38 1   
    20     8     9 ar  
    21     8    39 1   
    22     9    10 ar  
    23     9    22 1   
    24    10    40 1   
    25    11    13 1   
    26    11    24 2   
    27    11    56 1   
    28    12    16 1   
    29    12    25 1   
    30    12    41 1   
    31    12    42 1   
    32    13    15 2   
    33    13    43 1   
    34    14    17 1   
    35    14    44 1   
    36    14    57 2   
    37    15    27 1   
    38    16    21 1   
    39    16    45 1   
    40    16    46 1   
    41    17    18 1   
    42    17    26 1   
    43    17    47 1   
    44    18    19 1   
    45    18    48 1   
    46    18    49 1   
    47    19    20 1   
    48    19    21 1   
    49    19    50 1   
    50    20    25 1   
    51    20    30 2   
    52    21    51 1   
    53    21    52 1   
    54    23    53 1   
    55    23    56 1   
    56    24    27 1   
    57    25    54 1   
    58    26    55 1   
    59    29    56 2   
@<TRIPOS>SUBSTRUCTURE
     1 5GI         1 TEMP              0 ****  ****    0 ROOT
