@<TRIPOS>MOLECULE
5GJ
   37    39     1     0     0
SMALL
No Charge or Current Charge


@<TRIPOS>ATOM
      1 C4           2.5080     0.1160     1.3950 ca         1 5GJ      -0.104000
      2 C5           3.3810    -0.9240     1.7580 ca         1 5GJ      -0.109500
      3 C6           1.0960     1.3480    -0.2910 cx         1 5GJ      -0.164700
      4 C7           1.1020     2.0050    -1.6640 cx         1 5GJ      -0.103400
      5 C8           1.6810     2.7370    -0.4840 cx         1 5GJ      -0.103400
      6 C9          -0.2380     1.2710     0.4550 c          1 5GJ       0.637100
      7 C10         -0.8880    -0.6720    -1.0610 c6         1 5GJ       0.099000
      8 C11         -2.1030    -1.3290    -1.7540 c6         1 5GJ      -0.097400
      9 C12         -3.1670    -1.7780    -0.7400 c6         1 5GJ      -0.115400
     10 C13         -3.6400    -0.5530     0.0600 c6         1 5GJ       0.147300
     11 C14         -2.4480     0.1290     0.7860 c6         1 5GJ       0.090000
     12 O           -0.4510     1.9640     1.4430 o          1 5GJ      -0.597100
     13 C3           2.0370     0.2250     0.0720 ca         1 5GJ      -0.044300
     14 C2           2.4580    -0.7210    -0.8870 ca         1 5GJ      -0.104000
     15 C1           3.3300    -1.7620    -0.5230 ca         1 5GJ      -0.109500
     16 C            3.7920    -1.8650     0.7990 ca         1 5GJ      -0.109000
     17 N           -1.2200     0.3730    -0.0400 n          1 5GJ      -0.397800
     18 O1          -4.6390    -0.9500     1.0060 oh         1 5GJ      -0.654000
     19 H1           2.1980     0.8400     2.1440 ha         1 5GJ       0.117000
     20 H2           3.7380    -1.0010     2.7830 ha         1 5GJ       0.113500
     21 H3           1.7990     1.6440    -2.4160 hc         1 5GJ       0.080700
     22 H4           0.1540     2.3600    -2.0630 hc         1 5GJ       0.080700
     23 H5           1.1280     3.5920    -0.1010 hc         1 5GJ       0.080700
     24 H6           2.7630     2.8440    -0.4380 hc         1 5GJ       0.080700
     25 H8          -0.2560    -0.2460    -1.8500 h1         1 5GJ       0.059200
     26 H9          -2.5470    -0.6140    -2.4620 hc         1 5GJ       0.048700
     27 H10         -1.7660    -2.1870    -2.3520 hc         1 5GJ       0.048700
     28 H11         -4.0130    -2.2390    -1.2680 hc         1 5GJ       0.048200
     29 H12         -2.7510    -2.5410    -0.0670 hc         1 5GJ       0.048200
     30 H13         -4.0670     0.1750    -0.6460 h1         1 5GJ       0.039700
     31 H14         -2.8070     1.0850     1.1930 h1         1 5GJ       0.074200
     32 H15         -2.1590    -0.4930     1.6450 h1         1 5GJ       0.074200
     33 H16          2.1100    -0.6580    -1.9140 ha         1 5GJ       0.117000
     34 H17          3.6480    -2.4880    -1.2680 ha         1 5GJ       0.113500
     35 H18          4.4670    -2.6700     1.0800 ha         1 5GJ       0.114000
     36 H19         -5.3790    -1.3400     0.4890 ho         1 5GJ       0.445000
     37 H7          -0.3020    -1.4580    -0.5640 h1         1 5GJ       0.059200
@<TRIPOS>BOND
     1     1     2 ar  
     2     1    13 ar  
     3     1    19 1   
     4     2    16 ar  
     5     2    20 1   
     6     3     4 1   
     7     3     5 1   
     8     3     6 1   
     9     3    13 1   
    10     4     5 1   
    11     4    21 1   
    12     4    22 1   
    13     5    23 1   
    14     5    24 1   
    15     6    12 2   
    16     6    17 1   
    17     7     8 1   
    18     7    17 1   
    19     7    25 1   
    20     7    37 1   
    21     8     9 1   
    22     8    26 1   
    23     8    27 1   
    24     9    10 1   
    25     9    28 1   
    26     9    29 1   
    27    10    11 1   
    28    10    18 1   
    29    10    30 1   
    30    11    17 1   
    31    11    31 1   
    32    11    32 1   
    33    13    14 ar  
    34    14    15 ar  
    35    14    33 1   
    36    15    16 ar  
    37    15    34 1   
    38    16    35 1   
    39    18    36 1   
@<TRIPOS>SUBSTRUCTURE
     1 5GJ         1 TEMP              0 ****  ****    0 ROOT
