@<TRIPOS>MOLECULE
5GJ
   37    39     1     0     0
SMALL
bcc


@<TRIPOS>ATOM
      1 C4           2.2010    -0.1270     1.3320 ca         1 5GJ      -0.122000
      2 C5           3.2240    -0.9670     1.7450 ca         1 5GJ      -0.127500
      3 C6           0.9240     1.1130    -0.4190 cx         1 5GJ      -0.164700
      4 C7           0.7230     1.5280    -1.8530 cx         1 5GJ      -0.103400
      5 C8           1.3210     2.4870    -0.8820 cx         1 5GJ      -0.103400
      6 C9          -0.3310     1.0320     0.4230 c          1 5GJ       0.704100
      7 C10         -0.8440    -1.1570    -0.6510 c6         1 5GJ       0.099000
      8 C11         -1.9990    -1.1450    -1.6440 c6         1 5GJ      -0.097400
      9 C12         -3.3350    -1.2730    -0.9190 c6         1 5GJ      -0.115400
     10 C13         -3.4650    -0.2150     0.1710 c6         1 5GJ       0.124100
     11 C14         -2.2610    -0.2770     1.1070 c6         1 5GJ       0.090000
     12 O           -0.6640     1.9600     1.1490 o          1 5GJ      -0.597100
     13 C3           2.0160     0.1690    -0.0190 ca         1 5GJ      -0.044300
     14 C2           2.8900    -0.3990    -0.9440 ca         1 5GJ      -0.122000
     15 C1           3.9190    -1.2350    -0.5310 ca         1 5GJ      -0.127500
     16 C            4.0910    -1.5250     0.8150 ca         1 5GJ      -0.127000
     17 N           -1.0340    -0.1180     0.3490 n          1 5GJ      -0.464800
     18 O1          -4.6130    -0.3930     0.9680 oh         1 5GJ      -0.591800
     19 H1           1.5490     0.3090     2.0790 ha         1 5GJ       0.135000
     20 H2           3.3460    -1.1820     2.7990 ha         1 5GJ       0.131500
     21 H3           1.3480     1.0890    -2.6200 hc         1 5GJ       0.080700
     22 H4          -0.2970     1.7010    -2.1740 hc         1 5GJ       0.080700
     23 H5           0.7310     3.3300    -0.5470 hc         1 5GJ       0.080700
     24 H6           2.3830     2.6820    -0.9540 hc         1 5GJ       0.080700
     25 H8           0.1060    -1.0360    -1.1630 h1         1 5GJ       0.059200
     26 H9          -1.9670    -0.2170    -2.2240 hc         1 5GJ       0.048700
     27 H10         -1.8740    -1.9650    -2.3540 hc         1 5GJ       0.048700
     28 H11         -4.1630    -1.1870    -1.6280 hc         1 5GJ       0.048200
     29 H12         -3.4050    -2.2640    -0.4580 hc         1 5GJ       0.048200
     30 H13         -3.4660     0.7780    -0.3050 h1         1 5GJ       0.039700
     31 H14         -2.3260     0.4930     1.8710 h1         1 5GJ       0.074200
     32 H15         -2.2380    -1.2500     1.6110 h1         1 5GJ       0.074200
     33 H16          2.7740    -0.1980    -2.0010 ha         1 5GJ       0.135000
     34 H17          4.5860    -1.6630    -1.2680 ha         1 5GJ       0.131500
     35 H18          4.8920    -2.1790     1.1350 ha         1 5GJ       0.132000
     36 H19         -5.3870    -0.3580     0.3960 ho         1 5GJ       0.406000
     37 H7          -0.8070    -2.1210    -0.1350 h1         1 5GJ       0.059200
@<TRIPOS>BOND
     1     1     2 ar  
     2     1    13 ar  
     3     1    19 1   
     4     2    16 ar  
     5     2    20 1   
     6     3     4 1   
     7     3     5 1   
     8     3     6 1   
     9     3    13 1   
    10     4     5 1   
    11     4    21 1   
    12     4    22 1   
    13     5    23 1   
    14     5    24 1   
    15     6    12 2   
    16     6    17 1   
    17     7     8 1   
    18     7    17 1   
    19     7    25 1   
    20     7    37 1   
    21     8     9 1   
    22     8    26 1   
    23     8    27 1   
    24     9    10 1   
    25     9    28 1   
    26     9    29 1   
    27    10    11 1   
    28    10    18 1   
    29    10    30 1   
    30    11    17 1   
    31    11    31 1   
    32    11    32 1   
    33    13    14 ar  
    34    14    15 ar  
    35    14    33 1   
    36    15    16 ar  
    37    15    34 1   
    38    16    35 1   
    39    18    36 1   
@<TRIPOS>SUBSTRUCTURE
     1 5GJ         1 TEMP              0 ****  ****    0 ROOT
