@<TRIPOS>MOLECULE
5GK
   58    61     1     0     0
SMALL
bcc


@<TRIPOS>ATOM
      1 C01         86.3250   117.8550    83.2660 c          1 5GK       0.690700
      2 N01         86.9880   117.0870    84.2020 ns         1 5GK      -0.430100
      3 O01         86.0860   117.4120    82.1440 o          1 5GK      -0.638500
      4 C02         85.9680   119.1610    83.7530 cc         1 5GK      -0.272200
      5 N02         87.4370   118.0680    88.2410 n3         1 5GK      -0.734600
      6 C03         86.2770   119.5550    85.0190 cd         1 5GK      -0.035000
      7 N03         87.0390   116.6740    90.7620 n3         1 5GK      -0.720600
      8 C04         87.3020   117.4750    85.4590 cc         1 5GK       0.039600
      9 C05         86.9690   118.7090    85.9210 cd         1 5GK      -0.210200
     10 C06         87.3500   119.1650    87.3050 c3         1 5GK       0.236000
     11 C07         86.1280   117.5610    88.6190 c6         1 5GK       0.131800
     12 C08         86.2760   116.3730    89.5610 c6         1 5GK       0.163300
     13 C09         88.3310   117.1860    90.3320 c6         1 5GK       0.163300
     14 C10         88.2340   118.3960    89.4110 c6         1 5GK       0.131800
     15 C11         86.3330   117.4910    91.7540 c6         1 5GK       0.187500
     16 C12         85.0560   116.7920    92.2350 c6         1 5GK      -0.072900
     17 C13         85.3530   115.4710    92.9340 c6         1 5GK      -0.062900
     18 C14         86.2860   115.6850    94.1320 c6         1 5GK      -0.015400
     19 C15         86.6230   114.3970    94.8380 ca         1 5GK      -0.077300
     20 C16         87.2600   113.3540    94.1700 ca         1 5GK      -0.094000
     21 C17         87.5910   112.1800    94.8310 ca         1 5GK      -0.135000
     22 C18         87.2930   112.0250    96.1750 ca         1 5GK      -0.082000
     23 C19         86.6570   113.0590    96.8520 ca         1 5GK      -0.196300
     24 C20         86.3490   112.8740    98.3040 c3         1 5GK       0.720200
     25 C21         86.3260   114.2330    96.1880 ca         1 5GK      -0.078000
     26 C22         87.5540   116.4350    93.7060 c6         1 5GK      -0.062900
     27 C23         87.2010   117.7350    92.9930 c6         1 5GK      -0.072900
     28 F01         85.7240   113.9230    98.8450 f          1 5GK      -0.236633
     29 F02         85.5650   111.8040    98.5110 f          1 5GK      -0.236633
     30 F03         87.4620   112.6690    99.0250 f          1 5GK      -0.236633
     31 H1          87.2540   116.1550    83.9140 hn         1 5GK       0.325500
     32 H2          85.4360   119.8190    83.0800 ha         1 5GK       0.158000
     33 H4          85.9820   120.5440    85.3490 ha         1 5GK       0.132000
     34 H6          87.8200   116.7480    86.0680 h4         1 5GK       0.166000
     35 H7          88.3290   119.6540    87.2640 h1         1 5GK       0.038200
     36 H8          86.6420   119.9440    87.6370 h1         1 5GK       0.038200
     37 H9          85.5130   118.3490    89.0880 h1         1 5GK       0.036700
     38 H10         85.5910   117.2390    87.7230 h1         1 5GK       0.036700
     39 H11         85.2940   115.9770    89.8130 h1         1 5GK       0.058450
     40 H12         86.7990   115.5750    89.0230 h1         1 5GK       0.058450
     41 H13         88.8380   116.3850    89.7840 h1         1 5GK       0.058450
     42 H14         88.9670   117.4210    91.1850 h1         1 5GK       0.058450
     43 H15         89.2380   118.6780    89.0840 h1         1 5GK       0.036700
     44 H16         87.8260   119.2620    89.9590 h1         1 5GK       0.036700
     45 H17         86.0420   118.4730    91.3500 h1         1 5GK       0.023700
     46 H18         84.5560   117.4710    92.9330 hc         1 5GK       0.040700
     47 H19         84.3430   116.6390    91.4230 hc         1 5GK       0.040700
     48 H20         84.4220   115.0100    93.2740 hc         1 5GK       0.048450
     49 H21         85.8110   114.7780    92.2240 hc         1 5GK       0.048450
     50 H22         85.7530   116.3260    94.8450 hc         1 5GK       0.047700
     51 H23         87.5080   113.4560    93.1200 ha         1 5GK       0.141000
     52 H24         88.0860   111.3800    94.2960 ha         1 5GK       0.138000
     53 H25         87.5610   111.1050    96.6800 ha         1 5GK       0.145000
     54 H26         85.8320   115.0430    96.7110 ha         1 5GK       0.146000
     55 H27         88.1540   115.8000    93.0480 hc         1 5GK       0.048450
     56 H28         88.1670   116.6480    94.5860 hc         1 5GK       0.048450
     57 H29         88.1030   118.2990    92.7500 hc         1 5GK       0.040700
     58 H30         86.6320   118.3770    93.6730 hc         1 5GK       0.040700
@<TRIPOS>BOND
     1     1     2 1   
     2     1     3 2   
     3     1     4 1   
     4     2     8 1   
     5     2    31 1   
     6     4     6 2   
     7     4    32 1   
     8     5    10 1   
     9     5    11 1   
    10     5    14 1   
    11     6     9 1   
    12     6    33 1   
    13     7    12 1   
    14     7    13 1   
    15     7    15 1   
    16     8     9 2   
    17     8    34 1   
    18     9    10 1   
    19    10    35 1   
    20    10    36 1   
    21    11    12 1   
    22    11    37 1   
    23    11    38 1   
    24    12    39 1   
    25    12    40 1   
    26    13    14 1   
    27    13    41 1   
    28    13    42 1   
    29    14    43 1   
    30    14    44 1   
    31    15    16 1   
    32    15    27 1   
    33    15    45 1   
    34    16    17 1   
    35    16    46 1   
    36    16    47 1   
    37    17    18 1   
    38    17    48 1   
    39    17    49 1   
    40    18    19 1   
    41    18    26 1   
    42    18    50 1   
    43    19    20 ar  
    44    19    25 ar  
    45    20    21 ar  
    46    20    51 1   
    47    21    22 ar  
    48    21    52 1   
    49    22    23 ar  
    50    22    53 1   
    51    23    24 1   
    52    23    25 ar  
    53    24    28 1   
    54    24    29 1   
    55    24    30 1   
    56    25    54 1   
    57    26    27 1   
    58    26    55 1   
    59    26    56 1   
    60    27    57 1   
    61    27    58 1   
@<TRIPOS>SUBSTRUCTURE
     1 5GK         1 TEMP              0 ****  ****    0 ROOT
