@<TRIPOS>MOLECULE
5GK
   58    61     1     0     0
SMALL
No Charge or Current Charge


@<TRIPOS>ATOM
      1 C01         85.7410   118.1590    83.3310 c          1 5GK       0.548200
      2 N01         86.8720   117.5800    83.8370 ns         1 5GK      -0.363100
      3 O01         85.2730   117.8430    82.2490 o          1 5GK      -0.563000
      4 C02         85.1640   119.1790    84.2110 cc         1 5GK      -0.322200
      5 N02         87.7190   118.0180    88.0890 n3         1 5GK      -0.734600
      6 C03         85.7080   119.5250    85.4350 cd         1 5GK      -0.085000
      7 N03         87.3930   116.4640    90.6530 n3         1 5GK      -0.720600
      8 C04         87.4550   117.8900    85.0570 cc         1 5GK      -0.010400
      9 C05         86.9080   118.8550    85.8870 cd         1 5GK      -0.210200
     10 C06         87.5380   119.1990    87.2160 c3         1 5GK       0.236000
     11 C07         86.4290   117.3490    88.4570 c6         1 5GK       0.131800
     12 C08         86.6510   116.1140    89.3930 c6         1 5GK       0.163300
     13 C09         88.7030   117.0710    90.2330 c6         1 5GK       0.163300
     14 C10         88.5210   118.3250    89.3130 c6         1 5GK       0.131800
     15 C11         86.5980   117.3280    91.6080 c6         1 5GK       0.187500
     16 C12         85.2500   116.6710    92.0470 c6         1 5GK      -0.072900
     17 C13         85.4800   115.3790    92.8760 c6         1 5GK      -0.062900
     18 C14         86.3320   115.6670    94.1440 c6         1 5GK      -0.015400
     19 C15         86.5920   114.3920    94.9620 ca         1 5GK      -0.077300
     20 C16         87.3180   113.3170    94.4100 ca         1 5GK      -0.076000
     21 C17         87.5540   112.1600    95.1680 ca         1 5GK      -0.117000
     22 C18         87.0650   112.0610    96.4800 ca         1 5GK      -0.064000
     23 C19         86.3270   113.1220    97.0480 ca         1 5GK      -0.196300
     24 C20         85.7970   113.0310    98.4830 c3         1 5GK       0.356300
     25 C21         86.1030   114.2870    96.2800 ca         1 5GK      -0.060000
     26 C22         87.6550   116.3930    93.7670 c6         1 5GK      -0.062900
     27 C23         87.3780   117.6630    92.9200 c6         1 5GK      -0.072900
     28 F01         84.6030   113.6520    98.6270 f          1 5GK      -0.115333
     29 F02         85.6170   111.7540    98.8910 f          1 5GK      -0.115333
     30 F03         86.6500   113.6090    99.3590 f          1 5GK      -0.115333
     31 H1          87.2900   116.8690    83.2480 hn         1 5GK       0.325500
     32 H2          84.2660   119.6550    83.8340 ha         1 5GK       0.208000
     33 H4          85.2360   120.2900    86.0490 ha         1 5GK       0.182000
     34 H6          88.3460   117.3080    85.2780 h4         1 5GK       0.216000
     35 H7          88.5130   119.6650    87.0150 h1         1 5GK       0.038200
     36 H8          86.9220   119.9530    87.7260 h1         1 5GK       0.038200
     37 H9          85.7570   118.0620    88.9560 h1         1 5GK       0.036700
     38 H10         85.9070   117.0030    87.5520 h1         1 5GK       0.036700
     39 H11         85.6870   115.6300    89.5990 h1         1 5GK       0.058450
     40 H12         87.2300   115.3700    88.8260 h1         1 5GK       0.058450
     41 H13         89.2820   116.3260    89.6670 h1         1 5GK       0.058450
     42 H14         89.3340   117.3320    91.0920 h1         1 5GK       0.058450
     43 H15         89.5170   118.6930    89.0270 h1         1 5GK       0.036700
     44 H16         88.0430   119.1290    89.8930 h1         1 5GK       0.036700
     45 H17         86.3520   118.2820    91.1210 h1         1 5GK       0.023700
     46 H18         84.6870   117.3890    92.6600 hc         1 5GK       0.040700
     47 H19         84.5970   116.4670    91.1910 hc         1 5GK       0.040700
     48 H20         84.5120   114.9530    93.1710 hc         1 5GK       0.048450
     49 H21         85.9710   114.6230    92.2480 hc         1 5GK       0.048450
     50 H22         85.7520   116.3610    94.7690 hc         1 5GK       0.047700
     51 H23         87.7040   113.3780    93.3950 ha         1 5GK       0.123000
     52 H24         88.1200   111.3370    94.7370 ha         1 5GK       0.120000
     53 H25         87.2660   111.1570    97.0530 ha         1 5GK       0.127000
     54 H26         85.5470   115.1170    96.7110 ha         1 5GK       0.128000
     55 H27         88.3180   115.7170    93.2100 hc         1 5GK       0.048450
     56 H28         88.1960   116.6710    94.6820 hc         1 5GK       0.048450
     57 H29         88.3120   118.1990    92.7140 hc         1 5GK       0.040700
     58 H30         86.7820   118.3660    93.5190 hc         1 5GK       0.040700
@<TRIPOS>BOND
     1     1     2 1   
     2     1     3 2   
     3     1     4 1   
     4     2     8 1   
     5     2    31 1   
     6     4     6 2   
     7     4    32 1   
     8     5    10 1   
     9     5    11 1   
    10     5    14 1   
    11     6     9 1   
    12     6    33 1   
    13     7    12 1   
    14     7    13 1   
    15     7    15 1   
    16     8     9 2   
    17     8    34 1   
    18     9    10 1   
    19    10    35 1   
    20    10    36 1   
    21    11    12 1   
    22    11    37 1   
    23    11    38 1   
    24    12    39 1   
    25    12    40 1   
    26    13    14 1   
    27    13    41 1   
    28    13    42 1   
    29    14    43 1   
    30    14    44 1   
    31    15    16 1   
    32    15    27 1   
    33    15    45 1   
    34    16    17 1   
    35    16    46 1   
    36    16    47 1   
    37    17    18 1   
    38    17    48 1   
    39    17    49 1   
    40    18    19 1   
    41    18    26 1   
    42    18    50 1   
    43    19    20 ar  
    44    19    25 ar  
    45    20    21 ar  
    46    20    51 1   
    47    21    22 ar  
    48    21    52 1   
    49    22    23 ar  
    50    22    53 1   
    51    23    24 1   
    52    23    25 ar  
    53    24    28 1   
    54    24    29 1   
    55    24    30 1   
    56    25    54 1   
    57    26    27 1   
    58    26    55 1   
    59    26    56 1   
    60    27    57 1   
    61    27    58 1   
@<TRIPOS>SUBSTRUCTURE
     1 5GK         1 TEMP              0 ****  ****    0 ROOT
