@<TRIPOS>MOLECULE
5GL
   37    38     1     0     0
SMALL
No Charge or Current Charge


@<TRIPOS>ATOM
      1 C4          -0.0860    -0.9910     0.2730 cc         1 5GL      -0.349800
      2 C5          -0.9810     0.0120     0.7280 cc         1 5GL       0.603500
      3 C6           0.7330     1.6460     0.5180 c          1 5GL       0.690400
      4 N1          -0.5950     1.2700     0.8400 nd         1 5GL      -0.702100
      5 C10         -0.4000    -2.4340     0.0880 c5         1 5GL      -0.005200
      6 C11          0.8890    -2.9550    -0.6640 c5         1 5GL      -0.076400
      7 C12          1.9750    -1.8060    -0.4980 c5         1 5GL      -0.054200
      8 O            1.0480     2.8190     0.6430 o          1 5GL      -0.539000
      9 N            1.6480     0.6540     0.0700 n          1 5GL      -0.280000
     10 C2           3.0420     1.0230    -0.2740 c3         1 5GL       0.088000
     11 C1           4.0310     0.7870     0.8880 c3         1 5GL      -0.095400
     12 C            5.4820     1.1560     0.5250 c3         1 5GL      -0.089100
     13 S           -2.6530    -0.3370     1.1360 ss         1 5GL      -0.271200
     14 C3           1.1580    -0.6330    -0.0320 cd         1 5GL       0.097400
     15 H2          -0.5350    -2.9360     1.0530 hc         1 5GL       0.059200
     16 H3          -1.3110    -2.5940    -0.5010 hc         1 5GL       0.059200
     17 H4           1.2370    -3.9160    -0.2710 hc         1 5GL       0.051700
     18 H5           0.6660    -3.1120    -1.7260 hc         1 5GL       0.051700
     19 H6           2.7310    -2.0880     0.2430 hc         1 5GL       0.066200
     20 H7           2.4980    -1.6210    -1.4420 hc         1 5GL       0.066200
     21 H8           3.3650     0.4450    -1.1480 h1         1 5GL       0.064700
     22 H9           3.0810     2.0800    -0.5690 h1         1 5GL       0.064700
     23 H10          3.7150     1.3820     1.7540 hc         1 5GL       0.053700
     24 H11          3.9960    -0.2650     1.1940 hc         1 5GL       0.053700
     25 H12          6.1470     0.9770     1.3780 hc         1 5GL       0.036367
     26 H13          5.8370     0.5530    -0.3190 hc         1 5GL       0.036367
     27 H14          5.5560     2.2150     0.2490 hc         1 5GL       0.036367
     28 C7          -3.5730     0.8720     0.0820 c3         1 5GL       0.082300
     29 C8          -3.3580     0.5430    -1.4120 c3         1 5GL      -0.085100
     30 C9          -5.0630     0.8500     0.4750 c3         1 5GL      -0.085100
     31 H1          -3.1790     1.8780     0.2830 h1         1 5GL       0.095700
     32 H15         -3.9120     1.2480    -2.0440 hc         1 5GL       0.045700
     33 H16         -2.2980     0.6120    -1.6810 hc         1 5GL       0.045700
     34 H17         -3.7060    -0.4710    -1.6400 hc         1 5GL       0.045700
     35 H18         -5.1840     1.1020     1.5350 hc         1 5GL       0.045700
     36 H19         -5.6290     1.5810    -0.1160 hc         1 5GL       0.045700
     37 H20         -5.4970    -0.1430     0.3040 hc         1 5GL       0.045700
@<TRIPOS>BOND
     1     1     2 1   
     2     1     5 1   
     3     1    14 2   
     4     2     4 2   
     5     2    13 1   
     6     3     4 1   
     7     3     8 2   
     8     3     9 1   
     9     5     6 1   
    10     5    15 1   
    11     5    16 1   
    12     6     7 1   
    13     6    17 1   
    14     6    18 1   
    15     7    14 1   
    16     7    19 1   
    17     7    20 1   
    18     9    10 1   
    19     9    14 1   
    20    10    11 1   
    21    10    21 1   
    22    10    22 1   
    23    11    12 1   
    24    11    23 1   
    25    11    24 1   
    26    12    25 1   
    27    12    26 1   
    28    12    27 1   
    29    13    28 1   
    30    28    29 1   
    31    28    30 1   
    32    28    31 1   
    33    29    32 1   
    34    29    33 1   
    35    29    34 1   
    36    30    35 1   
    37    30    36 1   
    38    30    37 1   
@<TRIPOS>SUBSTRUCTURE
     1 5GL         1 TEMP              0 ****  ****    0 ROOT
