@<TRIPOS>MOLECULE
5GL
   37    38     1     0     0
SMALL
abcg2


@<TRIPOS>ATOM
      1 C4          -0.0250    -1.2590    -0.1280 cc         1 5GL      -0.349800
      2 C5          -0.9540    -0.2050    -0.0700 cc         1 5GL       0.603500
      3 C6           0.7030     1.4040    -0.2940 c          1 5GL       0.690400
      4 N1          -0.6020     1.0510    -0.1620 nd         1 5GL      -0.702100
      5 C10         -0.1880    -2.7420     0.0090 c5         1 5GL      -0.005200
      6 C11          1.1920    -3.2690    -0.4320 c5         1 5GL      -0.076400
      7 C12          2.1820    -2.1020    -0.2610 c5         1 5GL      -0.054200
      8 O            1.0590     2.5720    -0.3590 o          1 5GL      -0.539000
      9 N            1.6640     0.3830    -0.3560 n          1 5GL      -0.280000
     10 C2           3.0740     0.7540    -0.4340 c3         1 5GL       0.088000
     11 C1           3.6740     1.0620     0.9310 c3         1 5GL      -0.095400
     12 C            5.1480     1.4210     0.8130 c3         1 5GL      -0.089100
     13 S           -2.6270    -0.6450     0.1520 ss         1 5GL      -0.271200
     14 C3           1.2830    -0.9060    -0.2680 cd         1 5GL       0.097400
     15 H2          -0.4140    -3.0130     1.0450 hc         1 5GL       0.059200
     16 H3          -0.9940    -3.1450    -0.6070 hc         1 5GL       0.059200
     17 H4           1.5000    -4.1510     0.1270 hc         1 5GL       0.051700
     18 H5           1.1520    -3.5480    -1.4850 hc         1 5GL       0.051700
     19 H6           2.7230    -2.1470     0.6890 hc         1 5GL       0.066200
     20 H7           2.9330    -2.0790    -1.0510 hc         1 5GL       0.066200
     21 H8           3.6150    -0.0640    -0.9080 h1         1 5GL       0.064700
     22 H9           3.1620     1.6150    -1.0940 h1         1 5GL       0.064700
     23 H10          3.1230     1.8850     1.3920 hc         1 5GL       0.053700
     24 H11          3.5550     0.1940     1.5850 hc         1 5GL       0.053700
     25 H12          5.5700     1.6650     1.7870 hc         1 5GL       0.036367
     26 H13          5.7260     0.5920     0.4010 hc         1 5GL       0.036367
     27 H14          5.2950     2.2840     0.1620 hc         1 5GL       0.036367
     28 C7          -3.5050     0.9600     0.1530 c3         1 5GL       0.082300
     29 C8          -3.6800     1.4910    -1.2580 c3         1 5GL      -0.085100
     30 C9          -4.8370     0.7320     0.8550 c3         1 5GL      -0.085100
     31 H1          -2.8900     1.6450     0.7370 h1         1 5GL       0.095700
     32 H15         -4.1910     2.4570    -1.2240 hc         1 5GL       0.045700
     33 H16         -2.7210     1.6370    -1.7520 hc         1 5GL       0.045700
     34 H17         -4.2840     0.8120    -1.8610 hc         1 5GL       0.045700
     35 H18         -4.7020     0.3960     1.8820 hc         1 5GL       0.045700
     36 H19         -5.3950     1.6690     0.8770 hc         1 5GL       0.045700
     37 H20         -5.4480    -0.0030     0.3290 hc         1 5GL       0.045700
@<TRIPOS>BOND
     1     1     2 1   
     2     1     5 1   
     3     1    14 2   
     4     2     4 2   
     5     2    13 1   
     6     3     4 1   
     7     3     8 2   
     8     3     9 1   
     9     5     6 1   
    10     5    15 1   
    11     5    16 1   
    12     6     7 1   
    13     6    17 1   
    14     6    18 1   
    15     7    14 1   
    16     7    19 1   
    17     7    20 1   
    18     9    10 1   
    19     9    14 1   
    20    10    11 1   
    21    10    21 1   
    22    10    22 1   
    23    11    12 1   
    24    11    23 1   
    25    11    24 1   
    26    12    25 1   
    27    12    26 1   
    28    12    27 1   
    29    13    28 1   
    30    28    29 1   
    31    28    30 1   
    32    28    31 1   
    33    29    32 1   
    34    29    33 1   
    35    29    34 1   
    36    30    35 1   
    37    30    36 1   
    38    30    37 1   
@<TRIPOS>SUBSTRUCTURE
     1 5GL         1 TEMP              0 ****  ****    0 ROOT
