@<TRIPOS>MOLECULE
5GM
   27    26     1     0     0
SMALL
bcc


@<TRIPOS>ATOM
      1 N           66.4020    18.3230    60.8830 n8         1 5GM      -0.855800
      2 CA          66.1570    17.5830    59.6310 c3         1 5GM       0.030200
      3 CB          66.9450    16.2710    59.7630 c3         1 5GM      -0.043400
      4 CC          67.1550    15.4080    58.5140 c3         1 5GM      -0.045700
      5 CD2         68.0330    14.2140    58.8900 c3         1 5GM      -0.084100
      6 CD          65.8530    14.9600    57.8480 c3         1 5GM      -0.081400
      7 CE          66.0580    14.1530    56.5710 c3         1 5GM      -0.083100
      8 CB2         66.6420    18.3860    58.4240 c3         1 5GM      -0.088100
      9 C           64.6120    17.3370    59.5950 c          1 5GM       0.938600
     10 O           63.9500    17.9980    58.7690 o          1 5GM      -0.829800
     11 HAX         67.3880    18.5610    60.9260 hn         1 5GM       0.304800
     12 HBA         67.9440    16.5270    60.1380 hc         1 5GM       0.033200
     13 HE6         66.4750    15.6670    60.5450 hc         1 5GM       0.033200
     14 HBD         67.7110    16.0030    57.7780 hc         1 5GM       0.023700
     15 HE8         68.3160    13.6160    58.0240 hc         1 5GM       0.017033
     16 HE9         68.9560    14.5440    59.3710 hc         1 5GM       0.017033
     17 HBE         67.5160    13.5550    59.5930 hc         1 5GM       0.017033
     18 HE7         65.2640    14.3770    58.5630 hc         1 5GM       0.068200
     19 HBB         65.2500    15.8380    57.6050 hc         1 5GM       0.068200
     20 HBC         65.1060    13.9660    56.0710 hc         1 5GM       0.013700
     21 HBF         66.4060    17.9110    57.4700 hc         1 5GM       0.014700
     22 HFA         66.1920    19.3790    58.4120 hc         1 5GM       0.014700
     23 HFB         67.7270    18.5150    58.4680 hc         1 5GM       0.014700
     24 H2          65.9200    19.2150    60.8400 hn         1 5GM       0.304800
     25 H1          66.6970    14.6890    55.8660 hc         1 5GM       0.013700
     26 OXT         64.1550    16.5300    60.4270 o          1 5GM      -0.829800
     27 H3          66.5190    13.1840    56.7600 hc         1 5GM       0.013700
@<TRIPOS>BOND
     1     1     2 1   
     2     1    11 1   
     3     1    24 1   
     4     2     3 1   
     5     2     8 1   
     6     2     9 1   
     7     3     4 1   
     8     3    12 1   
     9     3    13 1   
    10     4     5 1   
    11     4     6 1   
    12     4    14 1   
    13     5    15 1   
    14     5    16 1   
    15     5    17 1   
    16     6     7 1   
    17     6    18 1   
    18     6    19 1   
    19     7    20 1   
    20     7    25 1   
    21     7    27 1   
    22     8    21 1   
    23     8    22 1   
    24     8    23 1   
    25     9    10 1   
    26     9    26 1   
@<TRIPOS>SUBSTRUCTURE
     1 5GM         1 TEMP              0 ****  ****    0 ROOT
