@<TRIPOS>MOLECULE
5GN
   49    52     1     0     0
SMALL
No Charge or Current Charge


@<TRIPOS>ATOM
      1 C11         -4.1800     0.2470     0.8010 ca         1 5GN      -0.076000
      2 C6          -5.2050    -2.9140    -0.9430 ca         1 5GN      -0.093000
      3 C8          -6.4220    -2.7110     1.1500 ca         1 5GN      -0.097000
      4 C3          -2.1000    -1.2970    -1.2380 cc         1 5GN      -0.230300
      5 N2           6.4770     1.1260    -0.2210 nb         1 5GN      -0.196000
      6 C10         -4.8220    -0.9770     0.4970 ca         1 5GN      -0.027000
      7 C1           0.2470    -0.9960    -0.7170 cc         1 5GN       0.576300
      8 C7          -6.1410    -3.4180    -0.0270 ca         1 5GN      -0.099000
      9 N3           7.8710    -0.2410     1.1800 nb         1 5GN      -0.196000
     10 C9          -5.7680    -1.4960     1.4170 ca         1 5GN      -0.029000
     11 N1          -0.2140    -2.0790    -0.1160 nd         1 5GN      -0.649000
     12 C2          -1.5580    -2.2540    -0.4100 cd         1 5GN       0.305900
     13 C5          -4.5400    -1.6940    -0.6980 ca         1 5GN      -0.069300
     14 C12         -4.4750     0.9300     1.9920 ca         1 5GN      -0.014900
     15 C13         -5.4120     0.4100     2.8950 ca         1 5GN      -0.090000
     16 C14         -6.0580    -0.8020     2.6070 ca         1 5GN      -0.093000
     17 S           -0.9070    -0.1140    -1.6840 ss         1 5GN      -0.089400
     18 N            1.5490    -0.5650    -0.6070 ns         1 5GN      -0.482400
     19 C            2.5950    -1.1150     0.1000 c          1 5GN       0.619100
     20 O            2.5100    -2.1320     0.7730 o          1 5GN      -0.505100
     21 C15          3.9030    -0.3200    -0.0360 c3         1 5GN      -0.083400
     22 S1           5.3290    -1.0420     0.9200 ss         1 5GN      -0.208300
     23 C16          6.6970     0.0660     0.5890 ca         1 5GN       0.222300
     24 C20          8.9130     0.5820     0.9450 ca         1 5GN       0.144800
     25 C21         10.2330     0.2330     1.6080 c3         1 5GN      -0.150900
     26 C19          8.7790     1.7070     0.1150 ca         1 5GN      -0.231000
     27 C17          7.5200     1.9460    -0.4590 ca         1 5GN       0.144800
     28 C18          7.2690     3.1360    -1.3660 c3         1 5GN      -0.150900
     29 H1          -3.4480     0.6830     0.1280 ha         1 5GN       0.130000
     30 H2          -4.9960    -3.4780    -1.8490 ha         1 5GN       0.116000
     31 H3          -7.1480    -3.1110     1.8550 ha         1 5GN       0.117000
     32 H4          -3.7540    -0.1660    -2.0130 hc         1 5GN       0.063200
     33 H5          -3.6120    -1.7750    -2.6570 hc         1 5GN       0.063200
     34 H6          -6.6460    -4.3600    -0.2300 ha         1 5GN       0.118000
     35 H7          -2.0900    -3.0990     0.0110 h4         1 5GN       0.043100
     36 H8          -5.6380     0.9430     3.8160 ha         1 5GN       0.130000
     37 H9          -6.7840    -1.2020     3.3120 ha         1 5GN       0.118000
     38 H10          1.7800     0.2760    -1.1150 hn         1 5GN       0.332500
     39 H11          4.1640    -0.2810    -1.1000 h1         1 5GN       0.095200
     40 H12          3.7140     0.7020     0.3150 h1         1 5GN       0.095200
     41 H13         10.7650    -0.5340     1.0350 hc         1 5GN       0.057200
     42 H14         10.8860     1.1110     1.6820 hc         1 5GN       0.057200
     43 H15         10.0800    -0.1500     2.6250 hc         1 5GN       0.057200
     44 H16          9.6200     2.3690    -0.0760 ha         1 5GN       0.133000
     45 H17          6.8030     3.9570    -0.8090 hc         1 5GN       0.057200
     46 H18          8.2040     3.5130    -1.7980 hc         1 5GN       0.057200
     47 H19          6.6040     2.8720    -2.1970 hc         1 5GN       0.057200
     48 C4          -3.5220    -1.2000    -1.7280 c3         1 5GN       0.047200
     49 Br          -3.5890     2.5800     2.3830 br         1 5GN      -0.098100
@<TRIPOS>BOND
     1     1     6 ar  
     2     1    14 ar  
     3     1    29 1   
     4     2     8 ar  
     5     2    13 ar  
     6     2    30 1   
     7     3     8 ar  
     8     3    10 ar  
     9     3    31 1   
    10     4    12 2   
    11     4    17 1   
    12     4    48 1   
    13     5    23 ar  
    14     5    27 ar  
    15     6    10 ar  
    16     6    13 ar  
    17     7    11 2   
    18     7    17 1   
    19     7    18 1   
    20     8    34 1   
    21     9    23 ar  
    22     9    24 ar  
    23    10    16 ar  
    24    11    12 1   
    25    12    35 1   
    26    13    48 1   
    27    14    15 ar  
    28    14    49 1   
    29    15    16 ar  
    30    15    36 1   
    31    16    37 1   
    32    18    19 1   
    33    18    38 1   
    34    19    20 2   
    35    19    21 1   
    36    21    22 1   
    37    21    39 1   
    38    21    40 1   
    39    22    23 1   
    40    24    25 1   
    41    24    26 ar  
    42    25    41 1   
    43    25    42 1   
    44    25    43 1   
    45    26    27 ar  
    46    26    44 1   
    47    27    28 1   
    48    28    45 1   
    49    28    46 1   
    50    28    47 1   
    51    32    48 1   
    52    33    48 1   
@<TRIPOS>SUBSTRUCTURE
     1 5GN         1 TEMP              0 ****  ****    0 ROOT
