@<TRIPOS>MOLECULE
5GN
   49    52     1     0     0
SMALL
abcg2


@<TRIPOS>ATOM
      1 C11         -4.2980     0.4440    -0.3940 ca         1 5GN      -0.076000
      2 C6          -4.5520    -3.1630     0.4890 ca         1 5GN      -0.093000
      3 C8          -5.4770    -1.8670     2.2910 ca         1 5GN      -0.097000
      4 C3          -2.0510    -2.1260    -1.4300 cc         1 5GN      -0.230300
      5 N2           5.9700     1.1050     0.4720 nb         1 5GN      -0.196000
      6 C10         -4.5690    -0.7600     0.3010 ca         1 5GN      -0.027000
      7 C1           0.2920    -1.5970    -1.0440 cc         1 5GN       0.576300
      8 C7          -5.1700    -3.0840     1.7520 ca         1 5GN      -0.099000
      9 N3           7.7280    -0.4500     0.1560 nb         1 5GN      -0.196000
     10 C9          -5.1820    -0.6810     1.5810 ca         1 5GN      -0.029000
     11 N1           0.1740    -2.7810    -1.5350 nd         1 5GN      -0.649000
     12 C2          -1.1440    -3.0810    -1.7480 cd         1 5GN       0.305900
     13 C5          -4.2470    -2.0390    -0.2360 ca         1 5GN      -0.069300
     14 C12         -4.6050     1.6490     0.1730 ca         1 5GN      -0.014900
     15 C13         -5.2020     1.7400     1.4450 ca         1 5GN      -0.090000
     16 C14         -5.4860     0.5880     2.1230 ca         1 5GN      -0.093000
     17 S           -1.2060    -0.7500    -0.7980 ss         1 5GN      -0.089400
     18 N            1.4680    -0.9610    -0.7080 ns         1 5GN      -0.482400
     19 C            2.7070    -1.5320    -0.6220 c          1 5GN       0.619100
     20 O            2.9430    -2.6960    -0.8450 o          1 5GN      -0.505100
     21 C15          3.7720    -0.5420    -0.2050 c3         1 5GN      -0.083400
     22 S1           5.3640    -1.3920    -0.2580 ss         1 5GN      -0.208300
     23 C16          6.4550    -0.0840     0.1750 ca         1 5GN       0.222300
     24 C20          8.6220     0.4870     0.4610 ca         1 5GN       0.144800
     25 C21         10.0620     0.0930     0.4360 c3         1 5GN      -0.150900
     26 C19          8.2160     1.7780     0.7830 ca         1 5GN      -0.231000
     27 C17          6.8570     2.0530     0.7820 ca         1 5GN       0.144800
     28 C18          6.3190     3.4000     1.1360 c3         1 5GN      -0.150900
     29 H1          -3.8590     0.4130    -1.3830 ha         1 5GN       0.130000
     30 H2          -4.3090    -4.1370     0.0830 ha         1 5GN       0.116000
     31 H3          -5.9490    -1.7960     3.2630 ha         1 5GN       0.117000
     32 H4          -3.8920    -1.4480    -2.2860 hc         1 5GN       0.063200
     33 H5          -3.7820    -3.1600    -1.9870 hc         1 5GN       0.063200
     34 H6          -5.3940    -3.9950     2.2910 ha         1 5GN       0.118000
     35 H7          -1.4100    -4.0450    -2.1580 h4         1 5GN       0.043100
     36 H8          -5.4370     2.7020     1.8800 ha         1 5GN       0.130000
     37 H9          -5.9540     0.6440     3.0980 ha         1 5GN       0.118000
     38 H10          1.4010     0.0200    -0.4760 hn         1 5GN       0.332500
     39 H11          3.7760     0.3200    -0.8750 h1         1 5GN       0.095200
     40 H12          3.5640    -0.1720     0.8010 h1         1 5GN       0.095200
     41 H13         10.3380    -0.2620    -0.5570 hc         1 5GN       0.057200
     42 H14         10.7110     0.9250     0.6990 hc         1 5GN       0.057200
     43 H15         10.2450    -0.7240     1.1340 hc         1 5GN       0.057200
     44 H16          8.9400     2.5440     1.0250 ha         1 5GN       0.133000
     45 H17          5.7890     3.3520     2.0880 hc         1 5GN       0.057200
     46 H18          7.1120     4.1390     1.2250 hc         1 5GN       0.057200
     47 H19          5.6050     3.7380     0.3860 hc         1 5GN       0.057200
     48 C4          -3.5390    -2.1850    -1.5610 c3         1 5GN       0.047200
     49 BR          -4.2320     3.2440    -0.7640 br         1 5GN      -0.098100
@<TRIPOS>BOND
     1     1     6 ar  
     2     1    14 ar  
     3     1    29 1   
     4     2     8 ar  
     5     2    13 ar  
     6     2    30 1   
     7     3     8 ar  
     8     3    10 ar  
     9     3    31 1   
    10     4    12 2   
    11     4    17 1   
    12     4    48 1   
    13     5    23 ar  
    14     5    27 ar  
    15     6    10 ar  
    16     6    13 ar  
    17     7    11 2   
    18     7    17 1   
    19     7    18 1   
    20     8    34 1   
    21     9    23 ar  
    22     9    24 ar  
    23    10    16 ar  
    24    11    12 1   
    25    12    35 1   
    26    13    48 1   
    27    14    15 ar  
    28    14    49 1   
    29    15    16 ar  
    30    15    36 1   
    31    16    37 1   
    32    18    19 1   
    33    18    38 1   
    34    19    20 2   
    35    19    21 1   
    36    21    22 1   
    37    21    39 1   
    38    21    40 1   
    39    22    23 1   
    40    24    25 1   
    41    24    26 ar  
    42    25    41 1   
    43    25    42 1   
    44    25    43 1   
    45    26    27 ar  
    46    26    44 1   
    47    27    28 1   
    48    28    45 1   
    49    28    46 1   
    50    28    47 1   
    51    32    48 1   
    52    33    48 1   
@<TRIPOS>SUBSTRUCTURE
     1 5GN         1 TEMP              0 ****  ****    0 ROOT
