@<TRIPOS>MOLECULE
5GP
   36    38     1     0     0
SMALL
No Charge or Current Charge


@<TRIPOS>ATOM
      1 P           28.6590    69.5860    26.3420 p5         1 5GP       1.317900
      2 O1P         29.3820    68.2850    26.3410 o          1 5GP      -0.909833
      3 O2P         27.9450    69.7500    27.6360 o          1 5GP      -0.909833
      4 O3P         29.6350    70.6940    26.1550 o          1 5GP      -0.909833
      5 O5          27.5870    69.5730    25.1410 os         1 5GP      -0.585400
      6 C5          26.7350    70.7080    24.9170 c3         1 5GP       0.236600
      7 C4          26.9500    71.2430    23.4680 c5         1 5GP       0.132300
      8 O4          25.9250    72.2090    23.1140 os         1 5GP      -0.462000
      9 C3          28.3320    71.9360    23.1840 c5         1 5GP       0.166300
     10 O3          29.0510    71.3310    22.1030 oh         1 5GP      -0.669000
     11 C2          27.9570    73.3920    22.7240 c5         1 5GP       0.073300
     12 O2          28.0730    73.5110    21.2780 oh         1 5GP      -0.731000
     13 C1          26.4760    73.5380    23.2220 c5         1 5GP       0.307300
     14 N9          26.1950    74.1330    24.5360 na         1 5GP      -0.222500
     15 C8          25.0620    74.8700    24.8230 cc         1 5GP       0.364400
     16 N7          25.0990    75.3800    26.0500 nd         1 5GP      -0.622000
     17 C7          26.3150    74.9640    26.5780 cd         1 5GP       0.015500
     18 C6          26.9340    75.2010    27.9160 c          1 5GP       0.524500
     19 O6          26.4460    75.8600    28.8250 o          1 5GP      -0.604000
     20 N1          28.1410    74.5820    28.0440 ns         1 5GP      -0.481400
     21 C10         28.7020    73.8520    27.0610 cd         1 5GP       0.744800
     22 N2          29.7840    73.1660    27.3500 nv         1 5GP      -1.023200
     23 N3          28.2300    73.6480    25.8620 nc         1 5GP      -0.694100
     24 C9          26.9980    74.2180    25.6490 cc         1 5GP       0.212400
     25 H5'1        25.6850    70.4030    25.0190 h1         1 5GP       0.021700
     26 H5'2        26.9140    71.4980    25.6520 h1         1 5GP       0.021700
     27 H4          26.8170    70.3840    22.7970 h1         1 5GP       0.046700
     28 H3          28.9440    71.9570    24.0950 h1         1 5GP       0.149700
     29 HO3         28.8680    71.9920    21.3820 ho         1 5GP       0.481000
     30 H2          28.6060    74.1340    23.2090 h1         1 5GP       0.057700
     31 HO2         27.8730    74.4480    21.0380 ho         1 5GP       0.487000
     32 H1          25.9380    74.1930    22.5270 h2         1 5GP       0.043700
     33 H8          24.2620    74.9980    24.1050 h5         1 5GP       0.031100
     34 HN1         28.6110    74.6920    28.9280 hn         1 5GP       0.302500
     35 HN21        29.7970    72.2960    26.7950 hn         1 5GP       0.543500
     36 HN22        29.9320    72.9780    28.3290 hn         1 5GP       0.543500
@<TRIPOS>BOND
     1     1     2 1   
     2     1     3 1   
     3     1     4 1   
     4     1     5 1   
     5     5     6 1   
     6     6     7 1   
     7     6    25 1   
     8     6    26 1   
     9     7     8 1   
    10     7     9 1   
    11     7    27 1   
    12     8    13 1   
    13     9    10 1   
    14     9    11 1   
    15     9    28 1   
    16    10    29 1   
    17    11    12 1   
    18    11    13 1   
    19    11    30 1   
    20    12    31 1   
    21    13    14 1   
    22    13    32 1   
    23    14    15 1   
    24    14    24 1   
    25    15    16 2   
    26    15    33 1   
    27    16    17 1   
    28    17    18 1   
    29    17    24 2   
    30    18    19 2   
    31    18    20 1   
    32    20    21 1   
    33    20    34 1   
    34    21    22 1   
    35    21    23 2   
    36    22    35 1   
    37    22    36 1   
    38    23    24 1   
@<TRIPOS>SUBSTRUCTURE
     1 5GP         1 TEMP              0 ****  ****    0 ROOT
