@<TRIPOS>MOLECULE
5GP
   36    38     1     0     0
SMALL
abcg2


@<TRIPOS>ATOM
      1 P           29.1310    69.1720    26.0710 p5         1 5GP       1.317900
      2 O1P         30.1060    68.1360    25.5410 o          1 5GP      -0.909833
      3 O2P         28.1650    68.6820    27.1400 o          1 5GP      -0.909833
      4 O3P         29.7980    70.5080    26.4330 o          1 5GP      -0.909833
      5 O5          28.1920    69.4910    24.7170 os         1 5GP      -0.585400
      6 C5          27.1180    70.4020    24.8580 c3         1 5GP       0.236600
      7 C4          27.0070    71.2470    23.5990 c5         1 5GP       0.132300
      8 O4          25.9200    72.1810    23.7970 os         1 5GP      -0.462000
      9 C3          28.2510    72.0970    23.2850 c5         1 5GP       0.166300
     10 O3          29.1660    71.4930    22.3920 oh         1 5GP      -0.669000
     11 C2          27.6530    73.3990    22.7290 c5         1 5GP       0.073300
     12 O2          27.4930    73.2110    21.3250 oh         1 5GP      -0.731000
     13 C1          26.2750    73.4910    23.4020 c5         1 5GP       0.307300
     14 N9          26.2120    74.4150    24.5290 na         1 5GP      -0.222500
     15 C8          25.4240    75.5520    24.5740 cc         1 5GP       0.364400
     16 N7          25.5650    76.2290    25.6810 nd         1 5GP      -0.622000
     17 C7          26.4900    75.5070    26.4210 cd         1 5GP       0.015500
     18 C6          27.0390    75.7420    27.7150 c          1 5GP       0.524500
     19 O6          26.8240    76.6760    28.4890 o          1 5GP      -0.604000
     20 N1          27.9340    74.7190    28.0790 ns         1 5GP      -0.481400
     21 C10         28.2740    73.6240    27.3150 cd         1 5GP       0.744800
     22 N2          29.1320    72.7330    27.8190 nv         1 5GP      -1.023200
     23 N3          27.7750    73.4400    26.1030 nc         1 5GP      -0.694100
     24 C9          26.9030    74.3790    25.7180 cc         1 5GP       0.212400
     25 H5'1        26.1780    69.8610    25.0190 h1         1 5GP       0.021700
     26 H5'2        27.2790    71.0770    25.6980 h1         1 5GP       0.021700
     27 H4          26.7770    70.6180    22.7320 h1         1 5GP       0.046700
     28 H3          28.7820    72.3080    24.2080 h1         1 5GP       0.149700
     29 HO3         28.8420    71.6760    21.4970 ho         1 5GP       0.481000
     30 H2          28.2670    74.2750    22.9370 h1         1 5GP       0.057700
     31 HO2         27.4040    74.0720    20.8970 ho         1 5GP       0.487000
     32 H1          25.5450    73.8660    22.6830 h2         1 5GP       0.043700
     33 H8          24.7760    75.8080    23.7500 h5         1 5GP       0.031100
     34 HN1         28.3540    74.8230    28.9940 hn         1 5GP       0.302500
     35 HN21        29.3430    71.8550    27.2860 hn         1 5GP       0.543500
     36 HN22        29.4660    72.8370    28.7620 hn         1 5GP       0.543500
@<TRIPOS>BOND
     1     1     2 1   
     2     1     3 1   
     3     1     4 1   
     4     1     5 1   
     5     5     6 1   
     6     6     7 1   
     7     6    25 1   
     8     6    26 1   
     9     7     8 1   
    10     7     9 1   
    11     7    27 1   
    12     8    13 1   
    13     9    10 1   
    14     9    11 1   
    15     9    28 1   
    16    10    29 1   
    17    11    12 1   
    18    11    13 1   
    19    11    30 1   
    20    12    31 1   
    21    13    14 1   
    22    13    32 1   
    23    14    15 1   
    24    14    24 1   
    25    15    16 2   
    26    15    33 1   
    27    16    17 1   
    28    17    18 1   
    29    17    24 2   
    30    18    19 2   
    31    18    20 1   
    32    20    21 1   
    33    20    34 1   
    34    21    22 1   
    35    21    23 2   
    36    22    35 1   
    37    22    36 1   
    38    23    24 1   
@<TRIPOS>SUBSTRUCTURE
     1 5GP         1 TEMP              0 ****  ****    0 ROOT
