@<TRIPOS>MOLECULE
5GQ
   24    25     1     0     0
SMALL
No Charge or Current Charge


@<TRIPOS>ATOM
      1 C4           2.4510     0.7720    -0.1270 c6         1 5GQ       0.126300
      2 C6           0.1120    -0.9050    -0.0570 cc         1 5GQ       0.090000
      3 N1           1.2850    -1.4790    -0.0970 n2         1 5GQ      -0.398200
      4 C7          -1.0180    -1.6970     0.2870 cc         1 5GQ      -0.153000
      5 C8          -2.2630    -1.1470     0.3440 cd         1 5GQ      -0.045000
      6 O            2.5260     1.0060     1.2940 oh         1 5GQ      -0.651000
      7 C3           1.1320     1.3290    -0.7050 c6         1 5GQ       0.066600
      8 N           -0.0260     0.4720    -0.3410 na         1 5GQ      -0.080000
      9 C2          -1.3200     1.0360    -0.2900 cc         1 5GQ      -0.041000
     10 C1          -2.4150     0.2440     0.0490 cd         1 5GQ      -0.194300
     11 C           -3.7980     0.8460     0.1090 c3         1 5GQ      -0.021800
     12 H1           3.2920     1.2760    -0.6240 h1         1 5GQ       0.042700
     13 H5          -0.8750    -2.7510     0.5030 ha         1 5GQ       0.138000
     14 H6          -3.1200    -1.7600     0.6060 ha         1 5GQ       0.115000
     15 H7           3.3330     0.5510     1.6190 ho         1 5GQ       0.450000
     16 H8           0.9690     2.3530    -0.3410 h1         1 5GQ       0.059200
     17 H9           1.2010     1.3690    -1.8000 h1         1 5GQ       0.059200
     18 H10         -1.3930     2.0920    -0.5240 h4         1 5GQ       0.124000
     19 H11         -4.4200     0.4790    -0.7160 hc         1 5GQ       0.037367
     20 H12         -4.3010     0.5870     1.0480 hc         1 5GQ       0.037367
     21 H13         -3.7680     1.9400     0.0410 hc         1 5GQ       0.037367
     22 C5           2.5150    -0.7400    -0.4580 c6         1 5GQ       0.092800
     23 H2           2.6770    -0.8630    -1.5380 h1         1 5GQ       0.054200
     24 H3           3.3720    -1.2020     0.0530 h1         1 5GQ       0.054200
@<TRIPOS>BOND
     1     1     6 1   
     2     1     7 1   
     3     1    12 1   
     4     1    22 1   
     5     2     3 2   
     6     2     4 1   
     7     2     8 1   
     8     3    22 1   
     9     4     5 2   
    10     4    13 1   
    11     5    10 1   
    12     5    14 1   
    13     6    15 1   
    14     7     8 1   
    15     7    16 1   
    16     7    17 1   
    17     8     9 1   
    18     9    10 2   
    19     9    18 1   
    20    10    11 1   
    21    11    19 1   
    22    11    20 1   
    23    11    21 1   
    24    22    23 1   
    25    22    24 1   
@<TRIPOS>SUBSTRUCTURE
     1 5GQ         1 TEMP              0 ****  ****    0 ROOT
