@<TRIPOS>MOLECULE
5GQ
   24    25     1     0     0
SMALL
abcg2


@<TRIPOS>ATOM
      1 C4           2.3620     0.7590    -0.1210 c6         1 5GQ       0.126300
      2 C6           0.2050    -0.9360    -0.1160 cc         1 5GQ       0.090000
      3 N1           1.3550    -1.5110    -0.1740 n2         1 5GQ      -0.398200
      4 C7          -0.9780    -1.6990     0.2140 cc         1 5GQ      -0.153000
      5 C8          -2.1980    -1.1280     0.2990 cd         1 5GQ      -0.045000
      6 O            2.2290     0.9820     1.2660 oh         1 5GQ      -0.651000
      7 C3           1.0880     1.2480    -0.7720 c6         1 5GQ       0.066600
      8 N           -0.0300     0.4110    -0.3560 na         1 5GQ      -0.080000
      9 C2          -1.2680     0.9750    -0.2500 cc         1 5GQ      -0.041000
     10 C1          -2.3790     0.2720     0.0690 cd         1 5GQ      -0.194300
     11 C           -3.7280     0.9120     0.1810 c3         1 5GQ      -0.021800
     12 H1           3.2050     1.3240    -0.5400 h1         1 5GQ       0.042700
     13 H5          -0.8360    -2.7560     0.3930 ha         1 5GQ       0.138000
     14 H6          -3.0580    -1.7380     0.5510 ha         1 5GQ       0.115000
     15 H7           2.9710     0.5640     1.7130 ho         1 5GQ       0.450000
     16 H8           0.8760     2.2810    -0.4920 h1         1 5GQ       0.059200
     17 H9           1.1970     1.2160    -1.8580 h1         1 5GQ       0.059200
     18 H10         -1.3040     2.0390    -0.4440 h4         1 5GQ       0.124000
     19 H11         -4.4390     0.4700    -0.5200 hc         1 5GQ       0.037367
     20 H12         -4.1470     0.7870     1.1820 hc         1 5GQ       0.037367
     21 H13         -3.6800     1.9800    -0.0260 hc         1 5GQ       0.037367
     22 C5           2.5240    -0.7160    -0.4550 c6         1 5GQ       0.092800
     23 H2           2.8060    -0.8020    -1.5120 h1         1 5GQ       0.054200
     24 H3           3.3740    -1.1250     0.1030 h1         1 5GQ       0.054200
@<TRIPOS>BOND
     1     1     6 1   
     2     1     7 1   
     3     1    12 1   
     4     1    22 1   
     5     2     3 2   
     6     2     4 1   
     7     2     8 1   
     8     3    22 1   
     9     4     5 2   
    10     4    13 1   
    11     5    10 1   
    12     5    14 1   
    13     6    15 1   
    14     7     8 1   
    15     7    16 1   
    16     7    17 1   
    17     8     9 1   
    18     9    10 2   
    19     9    18 1   
    20    10    11 1   
    21    11    19 1   
    22    11    20 1   
    23    11    21 1   
    24    22    23 1   
    25    22    24 1   
@<TRIPOS>SUBSTRUCTURE
     1 5GQ         1 TEMP              0 ****  ****    0 ROOT
