@<TRIPOS>MOLECULE
5GR
   66    70     1     0     0
SMALL
bcc


@<TRIPOS>ATOM
      1 C1           6.4140    -0.0410    -0.2830 c3         1 5GR      -0.131300
      2 C2           9.0110     0.6240     0.3180 ca         1 5GR       0.749300
      3 C6          11.0900     1.3480     0.8230 ca         1 5GR       0.473100
      4 C9           1.7910    -3.0800    -1.8090 cc         1 5GR       0.367200
      5 C12         -1.4670    -2.1340    -0.5740 ca         1 5GR      -0.053300
      6 C15         -2.9790    -1.7920     1.7530 ca         1 5GR      -0.213000
      7 C18         -6.1120     1.0760     1.2650 cc         1 5GR       0.249600
      8 C21         -9.8350     1.9370    -0.6600 ca         1 5GR      -0.128300
      9 C27         -2.4690    -1.1800    -0.5230 ca         1 5GR      -0.160000
     10 O            5.7630    -2.3080    -0.7040 o          1 5GR      -0.505100
     11 C            5.4400    -1.1460    -0.6280 c          1 5GR       0.686100
     12 S            8.0160    -0.8010     0.0550 ss         1 5GR      -0.161400
     13 N1          10.2650     0.3240     0.6240 nb         1 5GR      -0.721500
     14 C7          12.5020     1.0280     1.1890 c3         1 5GR      -0.151400
     15 C5          10.6390     2.6590     0.7070 ca         1 5GR      -0.379600
     16 C3           9.3060     2.8610     0.3860 ca         1 5GR       0.473100
     17 C4           8.7200     4.2270     0.2420 c3         1 5GR      -0.151400
     18 N            8.4850     1.8250     0.1930 nb         1 5GR      -0.721500
     19 N2           4.1730    -0.6760    -0.8400 ns         1 5GR      -0.550400
     20 C8           3.0670    -1.4270    -1.1760 cd         1 5GR       0.575300
     21 S1           1.4970    -0.6830    -1.0980 ss         1 5GR      -0.233300
     22 C10          0.7990    -2.1730    -1.6390 cd         1 5GR      -0.145700
     23 N3           3.0670    -2.6570    -1.5540 nc         1 5GR      -0.650000
     24 C11         -0.6690    -2.3320    -1.8410 c3         1 5GR       0.047200
     25 C16         -3.2310    -1.0060     0.6350 ca         1 5GR       0.144100
     26 C14         -1.9660    -2.7470     1.6940 ca         1 5GR      -0.089000
     27 C13         -1.2130    -2.9220     0.5490 ca         1 5GR      -0.153000
     28 O1          -4.1830    -0.0510     0.5730 os         1 5GR      -0.326900
     29 C17         -5.0930     0.0670     1.6520 c3         1 5GR       0.126100
     30 N6          -6.4680     2.1020     2.0660 nc         1 5GR      -0.349000
     31 N5          -7.3720     2.8050     1.4770 nd         1 5GR      -0.206800
     32 N4          -7.6050     2.2590     0.2960 na         1 5GR       0.104400
     33 C19         -6.8490     1.1670     0.1120 cd         1 5GR      -0.204600
     34 C20         -8.6110     2.8100    -0.5940 c3         1 5GR       0.096600
     35 C26        -10.2020     1.3270    -1.8530 ca         1 5GR      -0.106500
     36 C25        -11.3310     0.5180    -1.9110 ca         1 5GR      -0.129000
     37 C24        -12.0970     0.3120    -0.7740 ca         1 5GR      -0.112000
     38 C23        -11.7330     0.9190     0.4240 ca         1 5GR      -0.129000
     39 C22        -10.6090     1.7280     0.4800 ca         1 5GR      -0.106500
     40 H1           6.4920     0.6640    -1.1120 h1         1 5GR       0.094700
     41 H2           6.0620     0.5160     0.5870 h1         1 5GR       0.094700
     42 H3           1.6250    -4.0970    -2.1360 h4         1 5GR       0.044100
     43 H4          -3.5460    -1.6820     2.6680 ha         1 5GR       0.138000
     44 H5          -2.6770    -0.5600    -1.3880 ha         1 5GR       0.142000
     45 H6          12.5460     0.6560     2.2140 hc         1 5GR       0.057367
     46 H7          12.9000     0.2460     0.5430 hc         1 5GR       0.057367
     47 H8          13.1440     1.9040     1.1210 hc         1 5GR       0.057367
     48 H9          11.3090     3.4930     0.8590 ha         1 5GR       0.151000
     49 H10          8.2540     4.3380    -0.7380 hc         1 5GR       0.057367
     50 H11          7.9410     4.3840     0.9880 hc         1 5GR       0.057367
     51 H12          9.4720     5.0030     0.3600 hc         1 5GR       0.057367
     52 H13          4.0290     0.3150    -0.7140 hn         1 5GR       0.332500
     53 H14         -0.8390    -3.3400    -2.2280 hc         1 5GR       0.062700
     54 H15         -1.0230    -1.6420    -2.6110 hc         1 5GR       0.062700
     55 H16         -1.7730    -3.3590     2.5660 ha         1 5GR       0.132000
     56 H17         -0.4280    -3.6690     0.5220 ha         1 5GR       0.139000
     57 H18         -4.5910     0.3900     2.5700 h1         1 5GR       0.053200
     58 H19         -5.5640    -0.9010     1.8560 h1         1 5GR       0.053200
     59 H20         -6.8870     0.5660    -0.7810 h4         1 5GR       0.192000
     60 H21         -8.1660     2.9330    -1.5810 h1         1 5GR       0.079700
     61 H22         -8.8500     3.8020    -0.2130 h1         1 5GR       0.079700
     62 H23         -9.6060     1.4830    -2.7440 ha         1 5GR       0.138000
     63 H24        -11.6080     0.0470    -2.8460 ha         1 5GR       0.136000
     64 H25        -12.9760    -0.3190    -0.8170 ha         1 5GR       0.135000
     65 H26        -12.3300     0.7640     1.3130 ha         1 5GR       0.136000
     66 H27        -10.3320     2.2000     1.4160 ha         1 5GR       0.138000
@<TRIPOS>BOND
     1     1    11 1   
     2     1    12 1   
     3     1    40 1   
     4     1    41 1   
     5     2    12 1   
     6     2    13 ar  
     7     2    18 ar  
     8     3    13 ar  
     9     3    14 1   
    10     3    15 ar  
    11     4    22 2   
    12     4    23 1   
    13     4    42 1   
    14     5     9 ar  
    15     5    24 1   
    16     5    27 ar  
    17     6    25 ar  
    18     6    26 ar  
    19     6    43 1   
    20     7    29 1   
    21     7    30 1   
    22     7    33 2   
    23     8    34 1   
    24     8    35 ar  
    25     8    39 ar  
    26     9    25 ar  
    27     9    44 1   
    28    10    11 2   
    29    11    19 1   
    30    14    45 1   
    31    14    46 1   
    32    14    47 1   
    33    15    16 ar  
    34    15    48 1   
    35    16    17 1   
    36    16    18 ar  
    37    17    49 1   
    38    17    50 1   
    39    17    51 1   
    40    19    20 1   
    41    19    52 1   
    42    20    21 1   
    43    20    23 2   
    44    21    22 1   
    45    22    24 1   
    46    24    53 1   
    47    24    54 1   
    48    25    28 1   
    49    26    27 ar  
    50    26    55 1   
    51    27    56 1   
    52    28    29 1   
    53    29    57 1   
    54    29    58 1   
    55    30    31 2   
    56    31    32 1   
    57    32    33 1   
    58    32    34 1   
    59    33    59 1   
    60    34    60 1   
    61    34    61 1   
    62    35    36 ar  
    63    35    62 1   
    64    36    37 ar  
    65    36    63 1   
    66    37    38 ar  
    67    37    64 1   
    68    38    39 ar  
    69    38    65 1   
    70    39    66 1   
@<TRIPOS>SUBSTRUCTURE
     1 5GR         1 TEMP              0 ****  ****    0 ROOT
