@<TRIPOS>MOLECULE
5GR
   66    70     1     0     0
SMALL
No Charge or Current Charge


@<TRIPOS>ATOM
      1 C1           5.6470    -0.0450    -0.2450 c3         1 5GR      -0.083400
      2 C2           8.0540     1.4710     0.2570 ca         1 5GR       0.223300
      3 C6           9.8620     2.8710     0.5330 ca         1 5GR       0.144800
      4 C9           1.5680    -4.1550    -0.6610 cc         1 5GR       0.301900
      5 C12         -1.7950    -3.8680    -0.5560 ca         1 5GR      -0.053300
      6 C15         -3.6430    -3.7220     1.5700 ca         1 5GR      -0.195000
      7 C18         -5.5020     0.2330     1.9920 cc         1 5GR       0.184300
      8 C21         -7.8740     3.0630    -0.2690 ca         1 5GR      -0.128300
      9 C27         -2.4760    -2.6660    -0.2860 ca         1 5GR      -0.142000
     10 O            5.2980    -2.3790     0.3140 o          1 5GR      -0.505100
     11 C            4.8480    -1.3560    -0.1790 c          1 5GR       0.619100
     12 S            7.3660    -0.1700     0.4630 ss         1 5GR      -0.209300
     13 N1           9.3250     1.6420     0.6790 nb         1 5GR      -0.195500
     14 C7          11.2880     3.0640     1.0130 c3         1 5GR      -0.151400
     15 C5           9.1250     3.9250    -0.0310 ca         1 5GR      -0.231000
     16 C3           7.8100     3.6520    -0.4440 ca         1 5GR       0.144800
     17 C4           6.9290     4.7210    -1.0610 c3         1 5GR      -0.151400
     18 N            7.2740     2.4240    -0.2980 nb         1 5GR      -0.195500
     19 N2           3.5890    -1.2550    -0.7270 ns         1 5GR      -0.483400
     20 C8           2.6160    -2.2130    -0.8340 cd         1 5GR       0.575300
     21 S1           1.0820    -1.8000    -1.5980 ss         1 5GR      -0.088400
     22 C10          0.5770    -3.4510    -1.2980 cd         1 5GR      -0.225300
     23 N3           2.7210    -3.4590    -0.4010 nc         1 5GR      -0.650000
     24 C11         -0.7900    -3.9390    -1.6980 c3         1 5GR       0.047200
     25 C16         -3.3980    -2.5850     0.7700 ca         1 5GR       0.144100
     26 C14         -2.9630    -4.9240     1.3080 ca         1 5GR      -0.071000
     27 C13         -2.0410    -4.9960     0.2490 ca         1 5GR      -0.135000
     28 O1          -4.0310    -1.3780     0.9810 os         1 5GR      -0.350100
     29 C17         -4.9950    -1.1890     2.0370 c3         1 5GR       0.149300
     30 N6          -5.6840     0.9660     3.1320 nc         1 5GR      -0.349000
     31 N5          -6.1360     2.1490     2.7970 nd         1 5GR      -0.206800
     32 N4          -6.2450     2.1700     1.4290 na         1 5GR       0.125800
     33 C19         -5.8480     0.9640     0.8980 cd         1 5GR      -0.172000
     34 C20         -6.7290     3.3550     0.7010 c3         1 5GR       0.125900
     35 C26         -7.8250     3.5540    -1.5900 ca         1 5GR      -0.088500
     36 C25         -8.8760     3.2870    -2.4850 ca         1 5GR      -0.111000
     37 C24         -9.9830     2.5300    -2.0670 ca         1 5GR      -0.094000
     38 C23        -10.0400     2.0420    -0.7510 ca         1 5GR      -0.111000
     39 C22         -8.9910     2.3080     0.1450 ca         1 5GR      -0.088500
     40 H1           5.7120     0.2580    -1.2970 h1         1 5GR       0.094700
     41 H2           5.0850     0.7190     0.3040 h1         1 5GR       0.094700
     42 H3           1.5140    -5.1910    -0.3530 h4         1 5GR       0.044100
     43 H4          -4.3490    -3.6930     2.3950 ha         1 5GR       0.120000
     44 H5          -2.2880    -1.7870    -0.8960 ha         1 5GR       0.124000
     45 H6          11.3140     3.2470     2.0940 hc         1 5GR       0.057367
     46 H7          11.9030     2.1800     0.8070 hc         1 5GR       0.057367
     47 H8          11.7630     3.9190     0.5180 hc         1 5GR       0.057367
     48 H9           9.5560     4.9160    -0.1430 ha         1 5GR       0.133000
     49 H10          6.3160     4.3140    -1.8740 hc         1 5GR       0.057367
     50 H11          6.2540     5.1500    -0.3120 hc         1 5GR       0.057367
     51 H12          7.5280     5.5390    -1.4790 hc         1 5GR       0.057367
     52 H13          3.3680    -0.3410    -1.0970 hn         1 5GR       0.332500
     53 H14         -0.7180    -4.9690    -2.0680 hc         1 5GR       0.062700
     54 H15         -1.1590    -3.3530    -2.5490 hc         1 5GR       0.062700
     55 H16         -3.1490    -5.8000     1.9250 ha         1 5GR       0.114000
     56 H17         -1.5180    -5.9300     0.0580 ha         1 5GR       0.121000
     57 H18         -4.5370    -1.3800     3.0160 h1         1 5GR       0.053200
     58 H19         -5.8450    -1.8710     1.9120 h1         1 5GR       0.053200
     59 H20         -5.8450     0.7310    -0.1590 h4         1 5GR       0.174000
     60 H21         -5.8790     3.7850     0.1570 h1         1 5GR       0.079700
     61 H22         -7.0640     4.1030     1.4310 h1         1 5GR       0.079700
     62 H23         -6.9730     4.1420    -1.9260 ha         1 5GR       0.120000
     63 H24         -8.8310     3.6670    -3.5040 ha         1 5GR       0.118000
     64 H25        -10.7960     2.3240    -2.7610 ha         1 5GR       0.117000
     65 H26        -10.8980     1.4580    -0.4250 ha         1 5GR       0.118000
     66 H27         -9.0500     1.9270     1.1630 ha         1 5GR       0.120000
@<TRIPOS>BOND
     1     1    11 1   
     2     1    12 1   
     3     1    40 1   
     4     1    41 1   
     5     2    12 1   
     6     2    13 ar  
     7     2    18 ar  
     8     3    13 ar  
     9     3    14 1   
    10     3    15 ar  
    11     4    22 2   
    12     4    23 1   
    13     4    42 1   
    14     5     9 ar  
    15     5    24 1   
    16     5    27 ar  
    17     6    25 ar  
    18     6    26 ar  
    19     6    43 1   
    20     7    29 1   
    21     7    30 1   
    22     7    33 2   
    23     8    34 1   
    24     8    35 ar  
    25     8    39 ar  
    26     9    25 ar  
    27     9    44 1   
    28    10    11 2   
    29    11    19 1   
    30    14    45 1   
    31    14    46 1   
    32    14    47 1   
    33    15    16 ar  
    34    15    48 1   
    35    16    17 1   
    36    16    18 ar  
    37    17    49 1   
    38    17    50 1   
    39    17    51 1   
    40    19    20 1   
    41    19    52 1   
    42    20    21 1   
    43    20    23 2   
    44    21    22 1   
    45    22    24 1   
    46    24    53 1   
    47    24    54 1   
    48    25    28 1   
    49    26    27 ar  
    50    26    55 1   
    51    27    56 1   
    52    28    29 1   
    53    29    57 1   
    54    29    58 1   
    55    30    31 2   
    56    31    32 1   
    57    32    33 1   
    58    32    34 1   
    59    33    59 1   
    60    34    60 1   
    61    34    61 1   
    62    35    36 ar  
    63    35    62 1   
    64    36    37 ar  
    65    36    63 1   
    66    37    38 ar  
    67    37    64 1   
    68    38    39 ar  
    69    38    65 1   
    70    39    66 1   
@<TRIPOS>SUBSTRUCTURE
     1 5GR         1 TEMP              0 ****  ****    0 ROOT
