@<TRIPOS>MOLECULE
5GT
   22    23     1     0     0
SMALL
No Charge or Current Charge


@<TRIPOS>ATOM
      1 FAB         -3.7390    -0.5490     0.6070 f          1 5GT      -0.115000
      2 CAO         -2.8870     0.3220     0.0180 c3         1 5GT       0.362300
      3 FAC         -3.3220     0.5040    -1.2490 f          1 5GT      -0.115000
      4 FAD         -3.0380     1.5020     0.6610 f          1 5GT      -0.115000
      5 CAL         -1.4360    -0.1750     0.0420 ca         1 5GT      -0.212300
      6 CAG         -0.3640     0.7440     0.0810 ca         1 5GT      -0.073000
      7 CAN          0.9650     0.2830     0.0910 ca         1 5GT      -0.078000
      8 NAJ          2.0480     1.1990     0.1330 ns         1 5GT      -0.140000
      9 C            3.3950     0.8820     0.0700 c          1 5GT       0.569000
     10 O            4.2740     1.7220     0.2310 o          1 5GT      -0.532000
     11 CA           3.7020    -0.6210    -0.2440 c6         1 5GT       0.116800
     12 N            2.5610    -1.5430     0.0890 nu         1 5GT      -0.928200
     13 CAM          1.2330    -1.1020     0.0610 ca         1 5GT       0.290000
     14 CAF          0.1750    -2.0170     0.0140 ca         1 5GT      -0.164000
     15 CAE         -1.1540    -1.5590     0.0000 ca         1 5GT      -0.039000
     16 H1          -0.5580     1.8160     0.0990 ha         1 5GT       0.131000
     17 H2           1.8180     2.1710     0.2920 hn         1 5GT       0.166000
     18 H3           3.9130    -0.6560    -1.3230 h1         1 5GT       0.071700
     19 H4           4.6200    -0.9000     0.2920 h1         1 5GT       0.071700
     20 H5           2.7060    -2.5550     0.0270 hn         1 5GT       0.476000
     21 H6           0.3780    -3.0840    -0.0110 ha         1 5GT       0.123000
     22 H7          -1.9640    -2.2860    -0.0440 ha         1 5GT       0.133000
@<TRIPOS>BOND
     1     1     2 1   
     2     2     3 1   
     3     2     4 1   
     4     2     5 1   
     5     5     6 ar  
     6     5    15 ar  
     7     6     7 ar  
     8     6    16 1   
     9     7     8 1   
    10     7    13 ar  
    11     8     9 1   
    12     8    17 1   
    13     9    10 2   
    14     9    11 1   
    15    11    12 1   
    16    11    18 1   
    17    11    19 1   
    18    12    13 1   
    19    12    20 1   
    20    13    14 ar  
    21    14    15 ar  
    22    14    21 1   
    23    15    22 1   
@<TRIPOS>SUBSTRUCTURE
     1 5GT         1 TEMP              0 ****  ****    0 ROOT
