@<TRIPOS>MOLECULE
5GT
   22    23     1     0     0
SMALL
bcc


@<TRIPOS>ATOM
      1 FAB         -3.7050    -0.6630    -0.0500 f          1 5GT      -0.236300
      2 CAO         -2.7900     0.3120    -0.0520 c3         1 5GT       0.726200
      3 FAC         -2.9980     1.0390    -1.1630 f          1 5GT      -0.236300
      4 FAD         -3.0850     1.1240     0.9780 f          1 5GT      -0.236300
      5 CAL         -1.3950    -0.2040     0.0260 ca         1 5GT      -0.212300
      6 CAG         -0.3470     0.7160     0.0430 ca         1 5GT      -0.091000
      7 CAN          0.9580     0.2780     0.1170 ca         1 5GT       0.014600
      8 NAJ          2.0220     1.1760     0.1980 ns         1 5GT      -0.466100
      9 C            3.3210     0.8450     0.0090 c          1 5GT       0.711500
     10 O            4.2200     1.6640     0.0500 o          1 5GT      -0.607500
     11 CA           3.5650    -0.6110    -0.3200 c6         1 5GT       0.116800
     12 N            2.5650    -1.4610     0.2850 nu         1 5GT      -0.734600
     13 CAM          1.2510    -1.0950     0.1660 ca         1 5GT       0.151600
     14 CAF          0.1960    -2.0020     0.1400 ca         1 5GT      -0.182000
     15 CAE         -1.1180    -1.5620     0.0790 ca         1 5GT      -0.057000
     16 H1          -0.5380     1.7830     0.0070 ha         1 5GT       0.149000
     17 H2           1.8120     2.1550     0.3410 hn         1 5GT       0.332500
     18 H3           3.5960    -0.6990    -1.4160 h1         1 5GT       0.071700
     19 H4           4.5480    -0.8870     0.0560 h1         1 5GT       0.071700
     20 H5           2.7530    -2.4480     0.1990 hn         1 5GT       0.420800
     21 H6           0.4050    -3.0630     0.1790 ha         1 5GT       0.141000
     22 H7          -1.9090    -2.2970     0.0650 ha         1 5GT       0.151000
@<TRIPOS>BOND
     1     1     2 1   
     2     2     3 1   
     3     2     4 1   
     4     2     5 1   
     5     5     6 ar  
     6     5    15 ar  
     7     6     7 ar  
     8     6    16 1   
     9     7     8 1   
    10     7    13 ar  
    11     8     9 1   
    12     8    17 1   
    13     9    10 2   
    14     9    11 1   
    15    11    12 1   
    16    11    18 1   
    17    11    19 1   
    18    12    13 1   
    19    12    20 1   
    20    13    14 ar  
    21    14    15 ar  
    22    14    21 1   
    23    15    22 1   
@<TRIPOS>SUBSTRUCTURE
     1 5GT         1 TEMP              0 ****  ****    0 ROOT
