@<TRIPOS>MOLECULE
5GU
   19    20     1     0     0
SMALL
No Charge or Current Charge


@<TRIPOS>ATOM
      1 O           -4.3970    -1.7530     0.0720 o          1 5GU      -0.535000
      2 C           -3.5250    -0.8980    -0.0390 c          1 5GU       0.570000
      3 CA          -3.8440     0.6140    -0.2900 c6         1 5GU       0.111800
      4 N           -2.7190     1.5320     0.1010 nu         1 5GU      -0.920200
      5 CAK         -1.3860     1.1080     0.0720 ca         1 5GU       0.260000
      6 CAD         -0.3360     2.0390     0.0890 ca         1 5GU      -0.147000
      7 CAC          0.9990     1.5930     0.0740 ca         1 5GU      -0.070000
      8 CAJ          1.2790     0.2150     0.0470 ca         1 5GU      -0.026900
      9 Br           3.0940    -0.3870     0.0300 br         1 5GU      -0.093100
     10 CAE          0.2320    -0.7220     0.0320 ca         1 5GU      -0.098000
     11 CAL         -1.1020    -0.2760     0.0420 ca         1 5GU      -0.067000
     12 NAH         -2.1750    -1.2040     0.0280 ns         1 5GU      -0.140000
     13 H1          -4.0410     0.6970    -1.3690 h1         1 5GU       0.069700
     14 H2          -4.7730     0.8600     0.2460 h1         1 5GU       0.069700
     15 H3          -2.8780     2.5450     0.0900 hn         1 5GU       0.468000
     16 H4          -0.5500     3.1040     0.1150 ha         1 5GU       0.120000
     17 H5           1.8140     2.3140     0.0870 ha         1 5GU       0.132000
     18 H6           0.4560    -1.7870     0.0110 ha         1 5GU       0.133000
     19 H7          -1.9370    -2.1800     0.1460 hn         1 5GU       0.164000
@<TRIPOS>BOND
     1     1     2 2   
     2     2     3 1   
     3     2    12 1   
     4     3     4 1   
     5     3    13 1   
     6     3    14 1   
     7     4     5 1   
     8     4    15 1   
     9     5     6 ar  
    10     5    11 ar  
    11     6     7 ar  
    12     6    16 1   
    13     7     8 ar  
    14     7    17 1   
    15     8     9 1   
    16     8    10 ar  
    17    10    11 ar  
    18    10    18 1   
    19    11    12 1   
    20    12    19 1   
@<TRIPOS>SUBSTRUCTURE
     1 5GU         1 TEMP              0 ****  ****    0 ROOT
