@<TRIPOS>MOLECULE
5GU
   19    20     1     0     0
SMALL
abcg2


@<TRIPOS>ATOM
      1 O           -4.3730    -1.6700     0.0200 o          1 5GU      -0.535000
      2 C           -3.4770    -0.8480    -0.0190 c          1 5GU       0.570000
      3 CA          -3.7180     0.6070    -0.3540 c6         1 5GU       0.111800
      4 N           -2.7420     1.4530     0.2950 nu         1 5GU      -0.920200
      5 CAK         -1.4190     1.0980     0.1540 ca         1 5GU       0.260000
      6 CAD         -0.3700     2.0110     0.1170 ca         1 5GU      -0.147000
      7 CAC          0.9490     1.5830     0.0400 ca         1 5GU      -0.070000
      8 CAJ          1.2180     0.2260    -0.0200 ca         1 5GU      -0.026900
      9 BR           3.0060    -0.3730    -0.1350 br         1 5GU      -0.093100
     10 CAE          0.1910    -0.7080     0.0040 ca         1 5GU      -0.098000
     11 CAL         -1.1190    -0.2700     0.0960 ca         1 5GU      -0.067000
     12 NAH         -2.1770    -1.1740     0.1800 ns         1 5GU      -0.140000
     13 H1          -3.7080     0.6990    -1.4500 h1         1 5GU       0.069700
     14 H2          -4.7150     0.8780    -0.0130 h1         1 5GU       0.069700
     15 H3          -2.9300     2.4390     0.2010 hn         1 5GU       0.468000
     16 H4          -0.5820     3.0720     0.1610 ha         1 5GU       0.120000
     17 H5           1.7440     2.3150     0.0180 ha         1 5GU       0.132000
     18 H6           0.3950    -1.7700    -0.0410 ha         1 5GU       0.133000
     19 H7          -1.9620    -2.1510     0.3270 hn         1 5GU       0.164000
@<TRIPOS>BOND
     1     1     2 2   
     2     2     3 1   
     3     2    12 1   
     4     3     4 1   
     5     3    13 1   
     6     3    14 1   
     7     4     5 1   
     8     4    15 1   
     9     5     6 ar  
    10     5    11 ar  
    11     6     7 ar  
    12     6    16 1   
    13     7     8 ar  
    14     7    17 1   
    15     8     9 1   
    16     8    10 ar  
    17    10    11 ar  
    18    10    18 1   
    19    11    12 1   
    20    12    19 1   
@<TRIPOS>SUBSTRUCTURE
     1 5GU         1 TEMP              0 ****  ****    0 ROOT
