@<TRIPOS>MOLECULE
5GV
   27    28     1     0     0
SMALL
bcc


@<TRIPOS>ATOM
      1 O            3.2020    -2.2710     0.1210 o          1 5GV      -0.665500
      2 C            2.3810    -1.3730     0.1890 c          1 5GV       0.711500
      3 NAI          1.0490    -1.5950     0.1290 ns         1 5GV      -0.449100
      4 CAO          0.0740    -0.5940     0.2050 ca         1 5GV      -0.019400
      5 CAG         -1.2450    -0.8360    -0.1320 ca         1 5GV      -0.108000
      6 CAM         -2.2130     0.1570     0.0070 ca         1 5GV      -0.133600
      7 CAK         -3.6610    -0.1210    -0.3550 c          1 5GV       0.924200
      8 OAD         -4.4650     0.8210    -0.2120 o          1 5GV      -0.825300
      9 OAB         -3.9280    -1.2680    -0.7660 o          1 5GV      -0.825300
     10 CAE         -1.8160     1.4020     0.4870 ca         1 5GV      -0.092000
     11 CAF         -0.4920     1.6570     0.8150 ca         1 5GV      -0.190000
     12 CAN          0.4700     0.6600     0.6850 ca         1 5GV       0.077600
     13 N            1.7900     0.8070     1.0560 nu         1 5GV      -0.739600
     14 CA           2.7810     0.0890     0.2800 c6         1 5GV       0.136500
     15 CB           3.0160     0.6430    -1.1340 c3         1 5GV      -0.110400
     16 CAA          3.4610     2.0990    -1.1220 c3         1 5GV      -0.087100
     17 H1           0.7430    -2.5470    -0.0180 hn         1 5GV       0.321500
     18 H2          -1.5330    -1.8140    -0.4970 ha         1 5GV       0.151000
     19 H4          -2.5500     2.1870     0.5980 ha         1 5GV       0.149000
     20 H5          -0.1960     2.6330     1.1820 ha         1 5GV       0.108000
     21 H6           2.0640     1.7410     1.3210 hn         1 5GV       0.394800
     22 H7           3.7220     0.1280     0.8320 h1         1 5GV       0.070700
     23 H8           3.7790     0.0290    -1.6190 hc         1 5GV       0.056200
     24 H9           2.1050     0.5400    -1.7320 hc         1 5GV       0.056200
     25 H10          2.6880     2.7570    -0.7220 hc         1 5GV       0.029033
     26 H11          4.3610     2.2350    -0.5200 hc         1 5GV       0.029033
     27 H12          3.6830     2.4410    -2.1320 hc         1 5GV       0.029033
@<TRIPOS>BOND
     1     1     2 2   
     2     2     3 1   
     3     2    14 1   
     4     3     4 1   
     5     3    17 1   
     6     4     5 ar  
     7     4    12 ar  
     8     5     6 ar  
     9     5    18 1   
    10     6     7 1   
    11     6    10 ar  
    12     7     8 1   
    13     7     9 1   
    14    10    11 ar  
    15    10    19 1   
    16    11    12 ar  
    17    11    20 1   
    18    12    13 1   
    19    13    14 1   
    20    13    21 1   
    21    14    15 1   
    22    14    22 1   
    23    15    16 1   
    24    15    23 1   
    25    15    24 1   
    26    16    25 1   
    27    16    26 1   
    28    16    27 1   
@<TRIPOS>SUBSTRUCTURE
     1 5GV         1 TEMP              0 ****  ****    0 ROOT
