@<TRIPOS>MOLECULE
5GV
   27    28     1     0     0
SMALL
No Charge or Current Charge


@<TRIPOS>ATOM
      1 O            3.1030    -2.2390    -0.1870 o          1 5GV      -0.590000
      2 C            2.2950    -1.3220    -0.0560 c          1 5GV       0.569000
      3 NAI          0.9290    -1.5440    -0.0880 ns         1 5GV      -0.123000
      4 CAO         -0.0900    -0.5830     0.1190 ca         1 5GV      -0.112000
      5 CAG         -1.4450    -0.9370    -0.0160 ca         1 5GV      -0.090000
      6 CAM         -2.4630     0.0250     0.1860 ca         1 5GV      -0.133600
      7 CAK         -3.9300    -0.3510     0.0400 c          1 5GV       0.713600
      8 OAD         -4.7780     0.5120     0.2230 o          1 5GV      -0.720000
      9 OAB         -4.2130    -1.5040    -0.2560 o          1 5GV      -0.720000
     10 CAE         -2.0870     1.3470     0.5280 ca         1 5GV      -0.074000
     11 CAF         -0.7310     1.6960     0.6650 ca         1 5GV      -0.172000
     12 CAN          0.2670     0.7350     0.4630 ca         1 5GV       0.216000
     13 N            1.6140     1.0740     0.6090 nu         1 5GV      -0.933200
     14 CA           2.7340     0.1770     0.1720 c6         1 5GV       0.136500
     15 CB           3.3790     0.7380    -1.1320 c3         1 5GV      -0.110400
     16 CAA          4.1130     2.0870    -0.9640 c3         1 5GV      -0.087100
     17 H1           0.6300    -2.4960    -0.2500 hn         1 5GV       0.155000
     18 H2          -1.7050    -1.9600    -0.2810 ha         1 5GV       0.133000
     19 H4          -2.8460     2.1100     0.6900 ha         1 5GV       0.131000
     20 H5          -0.4620     2.7140     0.9320 ha         1 5GV       0.090000
     21 H6           1.8190     2.0550     0.8080 hn         1 5GV       0.450000
     22 H7           3.5130     0.1440     0.9480 h1         1 5GV       0.070700
     23 H8           4.1080     0.0130    -1.5160 hc         1 5GV       0.056200
     24 H9           2.6150     0.8420    -1.9130 hc         1 5GV       0.056200
     25 H10          3.4180     2.8790    -0.6620 hc         1 5GV       0.029033
     26 H11          4.9000     2.0070    -0.2050 hc         1 5GV       0.029033
     27 H12          4.5790     2.3870    -1.9100 hc         1 5GV       0.029033
@<TRIPOS>BOND
     1     1     2 2   
     2     2     3 1   
     3     2    14 1   
     4     3     4 1   
     5     3    17 1   
     6     4     5 ar  
     7     4    12 ar  
     8     5     6 ar  
     9     5    18 1   
    10     6     7 1   
    11     6    10 ar  
    12     7     8 1   
    13     7     9 1   
    14    10    11 ar  
    15    10    19 1   
    16    11    12 ar  
    17    11    20 1   
    18    12    13 1   
    19    13    14 1   
    20    13    21 1   
    21    14    15 1   
    22    14    22 1   
    23    15    16 1   
    24    15    23 1   
    25    15    24 1   
    26    16    25 1   
    27    16    26 1   
    28    16    27 1   
@<TRIPOS>SUBSTRUCTURE
     1 5GV         1 TEMP              0 ****  ****    0 ROOT
