@<TRIPOS>MOLECULE
5GX
   47    51     1     0     0
SMALL
abcg2


@<TRIPOS>ATOM
      1 CL          -1.3780    -4.1370     0.8880 cl         1 5GX      -0.203000
      2 C02          0.0700    -3.1880     0.8190 ca         1 5GX       0.027000
      3 C03          0.0630    -1.8830     0.3110 ca         1 5GX       0.133000
      4 C04         -1.0960    -1.1610    -0.1870 cc         1 5GX      -0.181000
      5 C05         -2.4380    -1.2890     0.1360 cd         1 5GX      -0.126000
      6 N06         -3.1020    -0.3880    -0.5970 na         1 5GX       0.131800
      7 C07         -4.5250    -0.1080    -0.5700 c3         1 5GX       0.137900
      8 C08         -4.8190     1.2250     0.0630 ca         1 5GX      -0.114300
      9 C09         -5.0760     2.3380    -0.7290 ca         1 5GX      -0.082000
     10 C10         -5.3290     3.5740    -0.1460 ca         1 5GX      -0.113500
     11 C11         -5.3210     3.7050     1.2350 ca         1 5GX      -0.097000
     12 C12         -5.0630     2.5970     2.0330 ca         1 5GX      -0.113500
     13 C13         -4.8140     1.3630     1.4480 ca         1 5GX      -0.082000
     14 N14         -2.3000     0.3280    -1.3830 nd         1 5GX      -0.529800
     15 C15         -1.0880    -0.1180    -1.1440 cc         1 5GX       0.289900
     16 C16          1.3330    -1.2910     0.2990 ca         1 5GX       0.039400
     17 N17          1.7290    -0.0490    -0.1080 nc         1 5GX      -0.574100
     18 C18          3.0230    -0.0080     0.1020 cd         1 5GX       0.532400
     19 C19          3.8640     1.1230    -0.1850 cd         1 5GX      -0.254900
     20 C20          5.2290     1.2420     0.0140 cc         1 5GX      -0.149000
     21 N21          5.5710     2.4650    -0.3940 na         1 5GX       0.143800
     22 C22          6.8850     3.0600    -0.3810 c3         1 5GX       0.072900
     23 N23          4.5270     3.1620    -0.8470 nc         1 5GX      -0.532800
     24 C24          3.4770     2.3720    -0.7340 cd         1 5GX       0.319300
     25 C25          2.1260     2.8230    -1.1610 c3         1 5GX      -0.122400
     26 N26          3.5000    -1.1700     0.6350 na         1 5GX      -0.417300
     27 C27          2.4380    -2.0150     0.7750 ca         1 5GX       0.340500
     28 N28          2.4340    -3.2410     1.2540 nb         1 5GX      -0.666000
     29 C29          1.2380    -3.8120     1.2660 ca         1 5GX       0.365900
     30 H29          1.1830    -4.8250     1.6470 h4         1 5GX       0.033100
     31 H05         -2.9550    -1.9270     0.8320 h4         1 5GX       0.160000
     32 H15         -0.2370     0.2980    -1.6590 h4         1 5GX       0.056100
     33 H071        -4.8960    -0.1430    -1.5940 h1         1 5GX       0.066700
     34 H072        -5.0020    -0.9190    -0.0200 h1         1 5GX       0.066700
     35 H09         -5.0840     2.2390    -1.8080 ha         1 5GX       0.114500
     36 H13         -4.6220     0.5010     2.0770 ha         1 5GX       0.114500
     37 H10         -5.5330     4.4330    -0.7730 ha         1 5GX       0.115000
     38 H11         -5.5210     4.6670     1.6900 ha         1 5GX       0.113000
     39 H12         -5.0610     2.6920     3.1110 ha         1 5GX       0.115000
     40 H26          4.4540    -1.3840     0.8800 hn         1 5GX       0.365000
     41 H20          5.9590     0.5520     0.4070 h4         1 5GX       0.151000
     42 H221         7.1730     3.3550    -1.3870 h1         1 5GX       0.059367
     43 H222         6.8980     3.9330     0.2680 h1         1 5GX       0.059367
     44 H223         7.5980     2.3300    -0.0080 h1         1 5GX       0.059367
     45 H251         1.3990     2.7210    -0.3570 hc         1 5GX       0.058033
     46 H252         2.1570     3.8640    -1.4780 hc         1 5GX       0.058033
     47 H253         1.7570     2.2220    -1.9930 hc         1 5GX       0.058033
@<TRIPOS>BOND
     1     1     2 1   
     2     2     3 ar  
     3     2    29 ar  
     4     3     4 1   
     5     3    16 ar  
     6     4     5 2   
     7     4    15 1   
     8     5     6 1   
     9     5    31 1   
    10     6     7 1   
    11     6    14 1   
    12     7     8 1   
    13     7    33 1   
    14     7    34 1   
    15     8     9 ar  
    16     8    13 ar  
    17     9    10 ar  
    18     9    35 1   
    19    10    11 ar  
    20    10    37 1   
    21    11    12 ar  
    22    11    38 1   
    23    12    13 ar  
    24    12    39 1   
    25    13    36 1   
    26    14    15 2   
    27    15    32 1   
    28    16    17 1   
    29    16    27 ar  
    30    17    18 2   
    31    18    19 1   
    32    18    26 1   
    33    19    20 2   
    34    19    24 1   
    35    20    21 1   
    36    20    41 1   
    37    21    22 1   
    38    21    23 1   
    39    22    42 1   
    40    22    43 1   
    41    22    44 1   
    42    23    24 2   
    43    24    25 1   
    44    25    45 1   
    45    25    46 1   
    46    25    47 1   
    47    26    27 1   
    48    26    40 1   
    49    27    28 ar  
    50    28    29 ar  
    51    29    30 1   
@<TRIPOS>SUBSTRUCTURE
     1 5GX         1 TEMP              0 ****  ****    0 ROOT
