@<TRIPOS>MOLECULE
5GX
   47    51     1     0     0
SMALL
No Charge or Current Charge


@<TRIPOS>ATOM
      1 Cl          -1.5600    -4.0290     0.8130 cl         1 5GX      -0.203000
      2 C02         -0.0770    -3.0610     0.8630 ca         1 5GX       0.027000
      3 C03          0.0580    -1.7880     0.2350 ca         1 5GX       0.133000
      4 C04         -1.0500    -1.0770    -0.4410 cc         1 5GX      -0.181000
      5 C05         -2.3550    -1.1620    -0.0420 cd         1 5GX      -0.126000
      6 N06         -3.0360    -0.2360    -0.8410 na         1 5GX       0.131800
      7 C07         -4.4850     0.0410    -0.8100 c3         1 5GX       0.137900
      8 C08         -4.8860     1.2620     0.0220 ca         1 5GX      -0.114300
      9 C09         -5.9100     2.1140    -0.4390 ca         1 5GX      -0.082000
     10 C10         -6.2970     3.2360     0.3160 ca         1 5GX      -0.113500
     11 C11         -5.6660     3.5120     1.5400 ca         1 5GX      -0.097000
     12 C12         -4.6490     2.6640     2.0100 ca         1 5GX      -0.113500
     13 C13         -4.2610     1.5430     1.2570 ca         1 5GX      -0.082000
     14 N14         -2.1910     0.4620    -1.6930 nd         1 5GX      -0.529800
     15 C15         -1.0120    -0.0490    -1.4020 cc         1 5GX       0.289900
     16 C16          1.3570    -1.2200     0.2790 ca         1 5GX       0.039400
     17 N17          1.7760     0.0030    -0.2350 nc         1 5GX      -0.574100
     18 C18          3.0660     0.0290     0.1150 cd         1 5GX       0.532400
     19 C19          3.9680     1.1050    -0.1900 cd         1 5GX      -0.254900
     20 C20          5.2860     1.1170     0.1780 cc         1 5GX      -0.149000
     21 N21          5.7380     2.3330    -0.3280 na         1 5GX       0.143800
     22 C22          7.1030     2.8650    -0.2180 c3         1 5GX       0.072900
     23 N23          4.7630     3.0630    -0.9840 nc         1 5GX      -0.532800
     24 C24          3.6900     2.2980    -0.8900 cd         1 5GX       0.319300
     25 C25          2.3890     2.7520    -1.4970 c3         1 5GX      -0.122400
     26 N26          3.4920    -1.0910     0.8210 na         1 5GX      -0.417300
     27 C27          2.3900    -1.8740     0.9210 ca         1 5GX       0.340500
     28 N28          2.2750    -3.0620     1.5290 nb         1 5GX      -0.666000
     29 C29          1.0500    -3.6420     1.4890 ca         1 5GX       0.365900
     30 H29          0.9700    -4.6200     1.9620 h4         1 5GX       0.033100
     31 H05         -2.8510    -1.7340     0.7310 h4         1 5GX       0.160000
     32 H15         -0.1460     0.3420    -1.9200 h4         1 5GX       0.056100
     33 H071        -4.8260     0.1730    -1.8440 h1         1 5GX       0.066700
     34 H072        -4.9950    -0.8430    -0.4100 h1         1 5GX       0.066700
     35 H09         -6.4080     1.9100    -1.3840 ha         1 5GX       0.114500
     36 H13         -3.4760     0.8950     1.6390 ha         1 5GX       0.114500
     37 H10         -7.0860     3.8890    -0.0480 ha         1 5GX       0.115000
     38 H11         -5.9660     4.3800     2.1250 ha         1 5GX       0.113000
     39 H12         -4.1620     2.8750     2.9600 ha         1 5GX       0.115000
     40 H26          4.4130    -1.2750     1.1790 hn         1 5GX       0.365000
     41 H20          5.9150     0.4210     0.7190 h4         1 5GX       0.151000
     42 H221         7.5170     3.0200    -1.2210 h1         1 5GX       0.059367
     43 H222         7.0810     3.8210     0.3190 h1         1 5GX       0.059367
     44 H223         7.7350     2.1560     0.3300 h1         1 5GX       0.059367
     45 H251         1.6080     2.8290    -0.7320 hc         1 5GX       0.058033
     46 H252         2.4860     3.7350    -1.9730 hc         1 5GX       0.058033
     47 H253         2.0490     2.0450    -2.2620 hc         1 5GX       0.058033
@<TRIPOS>BOND
     1     1     2 1   
     2     2     3 ar  
     3     2    29 ar  
     4     3     4 1   
     5     3    16 ar  
     6     4     5 2   
     7     4    15 1   
     8     5     6 1   
     9     5    31 1   
    10     6     7 1   
    11     6    14 1   
    12     7     8 1   
    13     7    33 1   
    14     7    34 1   
    15     8     9 ar  
    16     8    13 ar  
    17     9    10 ar  
    18     9    35 1   
    19    10    11 ar  
    20    10    37 1   
    21    11    12 ar  
    22    11    38 1   
    23    12    13 ar  
    24    12    39 1   
    25    13    36 1   
    26    14    15 2   
    27    15    32 1   
    28    16    17 1   
    29    16    27 ar  
    30    17    18 2   
    31    18    19 1   
    32    18    26 1   
    33    19    20 2   
    34    19    24 1   
    35    20    21 1   
    36    20    41 1   
    37    21    22 1   
    38    21    23 1   
    39    22    42 1   
    40    22    43 1   
    41    22    44 1   
    42    23    24 2   
    43    24    25 1   
    44    25    45 1   
    45    25    46 1   
    46    25    47 1   
    47    26    27 1   
    48    26    40 1   
    49    27    28 ar  
    50    28    29 ar  
    51    29    30 1   
@<TRIPOS>SUBSTRUCTURE
     1 5GX         1 TEMP              0 ****  ****    0 ROOT
