@<TRIPOS>MOLECULE
5GZ
   50    51     1     0     0
SMALL
bcc


@<TRIPOS>ATOM
      1 CL           3.9390     1.2860    -0.4670 cl         1 5GZ      -0.050400
      2 O01         -2.2270     3.1500     2.1900 o          1 5GZ      -0.606800
      3 C03         -1.0820     2.0160     0.1530 ca         1 5GZ      -0.335500
      4 C04         -0.8130     1.9640    -1.2120 ca         1 5GZ      -0.002000
      5 C05          0.1620     1.1080    -1.6830 ca         1 5GZ      -0.186500
      6 C06         -0.3850     1.2120     1.0410 ca         1 5GZ      -0.002000
      7 C07          0.5890     0.3460     0.5710 ca         1 5GZ      -0.186500
      8 C08          0.8600     0.3040    -0.7870 ca         1 5GZ       0.193100
      9 O09          1.8060    -0.5100    -1.3340 os         1 5GZ      -0.232200
     10 C10          2.7240    -1.1030    -0.5360 ca         1 5GZ       0.162100
     11 C11          2.6610    -2.4620    -0.2390 ca         1 5GZ      -0.176200
     12 N12          1.5240    -3.2540    -0.6790 no         1 5GZ       0.321200
     13 O13          1.7420    -4.3910    -1.0210 o          1 5GZ      -0.193500
     14 O14          0.4360    -2.7360    -0.6570 o          1 5GZ      -0.193500
     15 C15          3.6620    -3.0970     0.4780 ca         1 5GZ      -0.062000
     16 C16          4.7310    -2.3530     0.9440 ca         1 5GZ      -0.125000
     17 C17          4.8160    -0.9980     0.6670 ca         1 5GZ      -0.074000
     18 C18          3.8210    -0.3830    -0.0750 ca         1 5GZ      -0.008600
     19 N20         -3.7910     2.3960     0.3980 n7         1 5GZ      -0.829100
     20 C21         -4.0780     1.0390     0.8540 c3         1 5GZ       0.206800
     21 C22         -4.0160     0.0140    -0.2730 c3         1 5GZ       0.143800
     22 N23         -4.1400    -1.3310     0.2560 n3         1 5GZ      -0.733600
     23 C24         -4.9160    -2.2040    -0.6110 c3         1 5GZ       0.171800
     24 C25         -6.4090    -1.9380    -0.5100 c3         1 5GZ      -0.089100
     25 C26         -2.8350    -1.8800     0.5980 c3         1 5GZ       0.171800
     26 C27         -2.9000    -3.0150     1.6060 c3         1 5GZ      -0.089100
     27 O28         -2.3110     4.3270    -0.0350 o          1 5GZ      -0.606800
     28 H04         -1.3480     2.5910    -1.9120 ha         1 5GZ       0.156000
     29 H05          0.3900     1.0670    -2.7400 ha         1 5GZ       0.151000
     30 H06         -0.5880     1.2490     2.1030 ha         1 5GZ       0.156000
     31 H07          1.1190    -0.2820     1.2750 ha         1 5GZ       0.151000
     32 H15          3.5960    -4.1540     0.6930 ha         1 5GZ       0.173000
     33 H16          5.5090    -2.8330     1.5200 ha         1 5GZ       0.157000
     34 H17          5.6570    -0.4180     1.0220 ha         1 5GZ       0.163000
     35 HN20        -4.1370     2.6310    -0.5250 hn         1 5GZ       0.432800
     36 H21         -3.3770     0.7750     1.6490 h1         1 5GZ       0.070700
     37 H21A        -5.0700     1.0220     1.3070 h1         1 5GZ       0.070700
     38 H22         -4.8340     0.2160    -0.9690 h1         1 5GZ       0.034700
     39 H22A        -3.0910     0.1400    -0.8570 h1         1 5GZ       0.034700
     40 H24         -4.5880    -2.1270    -1.6600 h1         1 5GZ       0.033700
     41 H24A        -4.7320    -3.2370    -0.3140 h1         1 5GZ       0.033700
     42 H25         -6.9610    -2.6070    -1.1710 hc         1 5GZ       0.036867
     43 H25A        -6.7600    -2.1000     0.5090 hc         1 5GZ       0.036867
     44 H25B        -6.6670    -0.9170    -0.7940 hc         1 5GZ       0.036867
     45 H26         -2.2880    -2.2050    -0.3000 h1         1 5GZ       0.033700
     46 H26A        -2.2330    -1.0790     1.0340 h1         1 5GZ       0.033700
     47 H27         -3.3930    -2.6900     2.5230 hc         1 5GZ       0.036867
     48 H27A        -3.4360    -3.8850     1.2260 hc         1 5GZ       0.036867
     49 H27B        -1.8920    -3.3440     1.8600 hc         1 5GZ       0.036867
     50 S02         -2.3520     3.0980     0.7420 sy         1 5GZ       1.305200
@<TRIPOS>BOND
     1     1    18 1   
     2     2    50 2   
     3     3     4 ar  
     4     3     6 ar  
     5     3    50 1   
     6     4     5 ar  
     7     4    28 1   
     8     5     8 ar  
     9     5    29 1   
    10     6     7 ar  
    11     6    30 1   
    12     7     8 ar  
    13     7    31 1   
    14     8     9 1   
    15     9    10 1   
    16    10    11 ar  
    17    10    18 ar  
    18    11    12 1   
    19    11    15 ar  
    20    12    13 1   
    21    12    14 1   
    22    15    16 ar  
    23    15    32 1   
    24    16    17 ar  
    25    16    33 1   
    26    17    18 ar  
    27    17    34 1   
    28    19    20 1   
    29    19    35 1   
    30    19    50 1   
    31    20    21 1   
    32    20    36 1   
    33    20    37 1   
    34    21    22 1   
    35    21    38 1   
    36    21    39 1   
    37    22    23 1   
    38    22    25 1   
    39    23    24 1   
    40    23    40 1   
    41    23    41 1   
    42    24    42 1   
    43    24    43 1   
    44    24    44 1   
    45    25    26 1   
    46    25    45 1   
    47    25    46 1   
    48    26    47 1   
    49    26    48 1   
    50    26    49 1   
    51    27    50 2   
@<TRIPOS>SUBSTRUCTURE
     1 5GZ         1 TEMP              0 ****  ****    0 ROOT
