@<TRIPOS>MOLECULE
5GZ
   50    51     1     0     0
SMALL
No Charge or Current Charge


@<TRIPOS>ATOM
      1 Cl           4.0120     0.9840    -1.2950 cl         1 5GZ      -0.142000
      2 O01         -1.8490     4.1490     1.0920 o          1 5GZ      -0.536000
      3 C03         -1.1510     1.8530    -0.0590 ca         1 5GZ      -0.335500
      4 C04         -1.1630     1.1920    -1.3040 ca         1 5GZ       0.016000
      5 C05         -0.1720     0.2430    -1.6000 ca         1 5GZ      -0.168500
      6 C06         -0.1310     1.5770     0.8730 ca         1 5GZ       0.016000
      7 C07          0.8560     0.6250     0.5720 ca         1 5GZ      -0.168500
      8 C08          0.8350    -0.0470    -0.6670 ca         1 5GZ       0.193100
      9 O09          1.7680    -1.0080    -0.9950 os         1 5GZ      -0.232200
     10 C10          2.8600    -1.2870    -0.2040 ca         1 5GZ       0.162100
     11 C11          2.8730    -2.4370     0.6210 ca         1 5GZ      -0.176200
     12 N12          1.6990    -3.3510     0.6910 no         1 5GZ       0.701200
     13 O13          1.9240    -4.5590     0.8430 o          1 5GZ      -0.383500
     14 O14          0.5700    -2.8510     0.7710 o          1 5GZ      -0.383500
     15 C15          4.0260    -2.7270     1.3870 ca         1 5GZ      -0.044000
     16 C16          5.1430    -1.8760     1.3370 ca         1 5GZ      -0.107000
     17 C17          5.1260    -0.7350     0.5180 ca         1 5GZ      -0.056000
     18 C18          3.9910    -0.4420    -0.2550 ca         1 5GZ       0.083000
     19 N20         -3.3260     2.1840     1.5080 n7         1 5GZ      -0.884300
     20 C21         -3.4230     0.7010     1.4450 c3         1 5GZ       0.206800
     21 C22         -4.2080     0.1780     0.2000 c3         1 5GZ       0.143800
     22 N23         -4.3370    -1.3090     0.0820 n3         1 5GZ      -0.733600
     23 C24         -5.3260    -1.7200    -0.9580 c3         1 5GZ       0.171800
     24 C25         -6.7750    -1.2450    -0.7150 c3         1 5GZ      -0.089100
     25 C26         -3.0120    -1.9780    -0.0970 c3         1 5GZ       0.171800
     26 C27         -3.0330    -3.5180    -0.0060 c3         1 5GZ      -0.089100
     27 O28         -3.3470     3.2120    -0.7740 o          1 5GZ      -0.536000
     28 H04         -1.9390     1.3990    -2.0400 ha         1 5GZ       0.138000
     29 H05         -0.1870    -0.2760    -2.5540 ha         1 5GZ       0.133000
     30 H06         -0.1150     2.0820     1.8390 ha         1 5GZ       0.138000
     31 H07          1.6220     0.4110     1.3120 ha         1 5GZ       0.133000
     32 H15          4.0570    -3.6060     2.0290 ha         1 5GZ       0.155000
     33 H16          6.0250    -2.1020     1.9330 ha         1 5GZ       0.139000
     34 H17          5.9940    -0.0810     0.4760 ha         1 5GZ       0.145000
     35 HN20        -4.2490     2.5990     1.3950 hn         1 5GZ       0.488000
     36 H21         -2.4250     0.2510     1.4810 h1         1 5GZ       0.070700
     37 H21A        -3.9520     0.3340     2.3350 h1         1 5GZ       0.070700
     38 H22         -5.2020     0.6370     0.2600 h1         1 5GZ       0.034700
     39 H22A        -3.7420     0.5640    -0.7140 h1         1 5GZ       0.034700
     40 H24         -5.0020    -1.3670    -1.9470 h1         1 5GZ       0.033700
     41 H24A        -5.3770    -2.8140    -1.0120 h1         1 5GZ       0.033700
     42 H25         -7.4530    -1.7430    -1.4180 hc         1 5GZ       0.036867
     43 H25A        -7.0970    -1.4920     0.3030 hc         1 5GZ       0.036867
     44 H25B        -6.8770    -0.1650    -0.8680 hc         1 5GZ       0.036867
     45 H26         -2.5730    -1.6910    -1.0630 h1         1 5GZ       0.033700
     46 H26A        -2.3130    -1.6420     0.6780 h1         1 5GZ       0.033700
     47 H27         -3.5470    -3.8440     0.9060 hc         1 5GZ       0.036867
     48 H27A        -3.5300    -3.9670    -0.8730 hc         1 5GZ       0.036867
     49 H27B        -2.0080    -3.9050     0.0230 hc         1 5GZ       0.036867
     50 S02         -2.4460     3.0280     0.3640 sy         1 5GZ       1.163600
@<TRIPOS>BOND
     1     1    18 1   
     2     2    50 2   
     3     3     4 ar  
     4     3     6 ar  
     5     3    50 1   
     6     4     5 ar  
     7     4    28 1   
     8     5     8 ar  
     9     5    29 1   
    10     6     7 ar  
    11     6    30 1   
    12     7     8 ar  
    13     7    31 1   
    14     8     9 1   
    15     9    10 1   
    16    10    11 ar  
    17    10    18 ar  
    18    11    12 1   
    19    11    15 ar  
    20    12    13 1   
    21    12    14 1   
    22    15    16 ar  
    23    15    32 1   
    24    16    17 ar  
    25    16    33 1   
    26    17    18 ar  
    27    17    34 1   
    28    19    20 1   
    29    19    35 1   
    30    19    50 1   
    31    20    21 1   
    32    20    36 1   
    33    20    37 1   
    34    21    22 1   
    35    21    38 1   
    36    21    39 1   
    37    22    23 1   
    38    22    25 1   
    39    23    24 1   
    40    23    40 1   
    41    23    41 1   
    42    24    42 1   
    43    24    43 1   
    44    24    44 1   
    45    25    26 1   
    46    25    45 1   
    47    25    46 1   
    48    26    47 1   
    49    26    48 1   
    50    26    49 1   
    51    27    50 2   
@<TRIPOS>SUBSTRUCTURE
     1 5GZ         1 TEMP              0 ****  ****    0 ROOT
