@<TRIPOS>MOLECULE
5H0
   55    57     1     0     0
SMALL
abcg2


@<TRIPOS>ATOM
      1 C10        122.5270   121.1410   103.8360 c          1 5H0       0.561000
      2 C13        125.1180   119.2910   104.0130 ca         1 5H0      -0.116300
      3 C15        122.0550   121.7240   100.7260 c3         1 5H0       0.140800
      4 C17        125.4070   124.4250   103.3780 ca         1 5H0      -0.055000
      5 C20        123.4400   125.7790   103.6000 ca         1 5H0      -0.076000
      6 C21        124.8230   125.6690   103.5550 ca         1 5H0      -0.125000
      7 C22        124.7120   117.3790   102.5800 ca         1 5H0      -0.176000
      8 C24        120.0800   120.7910    99.7170 c3         1 5H0       0.149100
      9 C26        125.3700   116.5440   103.4800 ca         1 5H0       0.151100
     10 C28        121.9700   119.4000   107.6710 c3         1 5H0      -0.154100
     11 C08        124.9860   120.7510   104.3590 c3         1 5H0       0.141600
     12 C09        123.6100   121.1570   104.9120 c3         1 5H0       0.094300
     13 C12        123.2230   123.4020   103.2640 ca         1 5H0      -0.009000
     14 C14        124.6170   123.2900   103.2180 ca         1 5H0      -0.152000
     15 C16        122.6470   124.6520   103.4670 ca         1 5H0      -0.120000
     16 C18        124.5940   118.7350   102.8530 ca         1 5H0      -0.042500
     17 C19        125.7840   118.4440   104.8990 ca         1 5H0      -0.042500
     18 C23        125.9120   117.0920   104.6450 ca         1 5H0      -0.176000
     19 C25        121.8590   121.5890    98.3540 c3         1 5H0       0.149100
     20 C29        124.9770   114.6110   102.1640 c3         1 5H0       0.148900
     21 N06        122.3900   122.2720   103.0980 n          1 5H0      -0.228400
     22 N07        121.1440   121.7660    99.6000 n3         1 5H0      -0.713600
     23 O02        123.2930   120.2200   105.9190 os         1 5H0      -0.419100
     24 O03        121.8340   120.1570   103.6680 o          1 5H0      -0.526000
     25 O04        125.5380   115.2210   103.3080 os         1 5H0      -0.341100
     26 O05        121.5490   121.4750   106.5240 o          1 5H0      -0.481000
     27 S01        125.3850   121.7400   102.8680 ss         1 5H0      -0.186000
     28 H1         122.4310   120.7040   100.9100 h1         1 5H0       0.042700
     29 H2         122.9260   122.3380   100.4830 h1         1 5H0       0.042700
     30 H3         126.4840   124.3250   103.3560 ha         1 5H0       0.130000
     31 H4         122.9750   126.7440   103.7530 ha         1 5H0       0.121000
     32 H5         125.4460   126.5460   103.6670 ha         1 5H0       0.121000
     33 H6         124.2870   116.9970   101.6620 ha         1 5H0       0.122500
     34 H7         119.4680   120.9720   100.6000 h1         1 5H0       0.031533
     35 H8         119.4210   120.8610    98.8510 h1         1 5H0       0.031533
     36 H9         120.4520   119.7550    99.7720 h1         1 5H0       0.031533
     37 H10        121.0780   119.6180   108.2520 hc         1 5H0       0.072367
     38 H11        121.8470   118.4390   107.1720 hc         1 5H0       0.072367
     39 H12        122.8220   119.3080   108.3460 hc         1 5H0       0.072367
     40 H13        125.7190   120.9930   105.1310 h1         1 5H0       0.083700
     41 H14        123.6980   122.1530   105.3530 h1         1 5H0       0.080700
     42 H15        121.0990   123.3020   101.8280 h1         1 5H0       0.068200
     43 H16        120.5510   121.7080   102.3080 h1         1 5H0       0.068200
     44 H17        121.5690   124.7410   103.5260 ha         1 5H0       0.130000
     45 H18        124.0940   119.3580   102.1230 ha         1 5H0       0.118000
     46 H19        126.2140   118.8480   105.8080 ha         1 5H0       0.118000
     47 H20        126.4330   116.4520   105.3450 ha         1 5H0       0.122500
     48 H21        122.6120   122.3700    98.2370 h1         1 5H0       0.031533
     49 H22        122.3700   120.6160    98.2820 h1         1 5H0       0.031533
     50 H23        121.1680   121.6630    97.5130 h1         1 5H0       0.031533
     51 H24        125.2070   113.5500   102.2360 h1         1 5H0       0.041367
     52 H25        123.8920   114.7340   102.1260 h1         1 5H0       0.041367
     53 H26        125.4080   115.0010   101.2380 h1         1 5H0       0.041367
     54 C11        121.4260   122.2780   102.0010 c3         1 5H0       0.105000
     55 C27        122.2130   120.4820   106.6670 c          1 5H0       0.599100
@<TRIPOS>BOND
     1     1    12 1   
     2     1    21 1   
     3     1    24 2   
     4     2    11 1   
     5     2    16 ar  
     6     2    17 ar  
     7     3    22 1   
     8     3    28 1   
     9     3    29 1   
    10     3    54 1   
    11     4     6 ar  
    12     4    14 ar  
    13     4    30 1   
    14     5     6 ar  
    15     5    15 ar  
    16     5    31 1   
    17     6    32 1   
    18     7     9 ar  
    19     7    16 ar  
    20     7    33 1   
    21     8    22 1   
    22     8    34 1   
    23     8    35 1   
    24     8    36 1   
    25     9    18 ar  
    26     9    25 1   
    27    10    37 1   
    28    10    38 1   
    29    10    39 1   
    30    10    55 1   
    31    11    12 1   
    32    11    27 1   
    33    11    40 1   
    34    12    23 1   
    35    12    41 1   
    36    13    14 ar  
    37    13    15 ar  
    38    13    21 1   
    39    14    27 1   
    40    15    44 1   
    41    16    45 1   
    42    17    18 ar  
    43    17    46 1   
    44    18    47 1   
    45    19    22 1   
    46    19    48 1   
    47    19    49 1   
    48    19    50 1   
    49    20    25 1   
    50    20    51 1   
    51    20    52 1   
    52    20    53 1   
    53    21    54 1   
    54    23    55 1   
    55    26    55 2   
    56    42    54 1   
    57    43    54 1   
@<TRIPOS>SUBSTRUCTURE
     1 5H0         1 TEMP              0 ****  ****    0 ROOT
