@<TRIPOS>MOLECULE
5H0
   55    57     1     0     0
SMALL
No Charge or Current Charge


@<TRIPOS>ATOM
      1 C10        122.5670   121.0900   103.6770 c          1 5H0       0.561000
      2 C13        125.2410   119.2100   104.1450 ca         1 5H0      -0.116300
      3 C15        121.8560   121.8860   100.4730 c3         1 5H0       0.140800
      4 C17        125.5560   124.3620   103.4770 ca         1 5H0      -0.055000
      5 C20        123.5870   125.7700   103.6620 ca         1 5H0      -0.076000
      6 C21        124.9810   125.6210   103.7110 ca         1 5H0      -0.125000
      7 C22        124.9350   117.1920   102.7960 ca         1 5H0      -0.176000
      8 C24        119.6180   121.2410    99.5970 c3         1 5H0       0.149100
      9 C26        125.6580   116.4390   103.7460 ca         1 5H0       0.151100
     10 C28        121.8180   119.2670   107.6420 c3         1 5H0      -0.154100
     11 C08        125.0190   120.7070   104.3830 c3         1 5H0       0.141600
     12 C09        123.5850   121.0680   104.8540 c3         1 5H0       0.094300
     13 C12        123.3410   123.4120   103.0430 ca         1 5H0      -0.009000
     14 C14        124.7390   123.2580   103.1780 ca         1 5H0      -0.152000
     15 C16        122.7730   124.6670   103.3530 ca         1 5H0      -0.120000
     16 C18        124.7290   118.5690   102.9970 ca         1 5H0      -0.042500
     17 C19        125.9610   118.4510   105.0890 ca         1 5H0      -0.042500
     18 C23        126.1660   117.0760   104.8880 ca         1 5H0      -0.176000
     19 C25        121.4380   121.7970    98.0480 c3         1 5H0       0.149100
     20 C29        125.4110   114.3410   102.4710 c3         1 5H0       0.148900
     21 N06        122.4790   122.2670   102.8820 n          1 5H0      -0.228400
     22 N07        120.8500   122.0370    99.3850 n3         1 5H0      -0.713600
     23 O02        123.2140   120.1260   105.8990 os         1 5H0      -0.419100
     24 O03        121.8140   120.1400   103.4790 o          1 5H0      -0.526000
     25 O04        125.8910   115.0870   103.6040 os         1 5H0      -0.341100
     26 O05        121.3700   121.3590   106.5010 o          1 5H0      -0.481000
     27 S01        125.5080   121.6750   102.8870 ss         1 5H0      -0.186000
     28 H1         122.1700   120.8360   100.5470 h1         1 5H0       0.042700
     29 H2         122.7530   122.4670   100.2180 h1         1 5H0       0.042700
     30 H3         126.6360   124.2420   103.5380 ha         1 5H0       0.130000
     31 H4         123.1360   126.7370   103.8770 ha         1 5H0       0.121000
     32 H5         125.6130   126.4730   103.9510 ha         1 5H0       0.121000
     33 H6         124.5280   116.7310   101.9020 ha         1 5H0       0.122500
     34 H7         119.1060   121.5360   100.5220 h1         1 5H0       0.031533
     35 H8         118.9120   121.3930    98.7690 h1         1 5H0       0.031533
     36 H9         119.8500   120.1690    99.6560 h1         1 5H0       0.031533
     37 H10        120.9200   119.4490   108.2420 hc         1 5H0       0.072367
     38 H11        121.7690   118.3100   107.1110 hc         1 5H0       0.072367
     39 H12        122.7090   119.1410   108.2660 hc         1 5H0       0.072367
     40 H13        125.6970   121.0280   105.1840 h1         1 5H0       0.083700
     41 H14        123.6150   122.0820   105.2720 h1         1 5H0       0.080700
     42 H15        121.0540   123.3940   101.7850 h1         1 5H0       0.068200
     43 H16        120.5280   121.7680   102.2000 h1         1 5H0       0.068200
     44 H17        121.6930   124.7960   103.3630 ha         1 5H0       0.130000
     45 H18        124.1710   119.1330   102.2540 ha         1 5H0       0.118000
     46 H19        126.3600   118.9260   105.9840 ha         1 5H0       0.118000
     47 H20        126.7220   116.4990   105.6230 ha         1 5H0       0.122500
     48 H21        122.2990   122.4580    97.8770 h1         1 5H0       0.031533
     49 H22        121.7780   120.7570    97.9500 h1         1 5H0       0.031533
     50 H23        120.7010   121.9940    97.2580 h1         1 5H0       0.031533
     51 H24        125.7060   113.2880   102.5560 h1         1 5H0       0.041367
     52 H25        124.3160   114.3840   102.4110 h1         1 5H0       0.041367
     53 H26        125.8310   114.7370   101.5370 h1         1 5H0       0.041367
     54 C11        121.3930   122.3560   101.8720 c3         1 5H0       0.105000
     55 C27        122.0810   120.3730   106.6310 c          1 5H0       0.599100
@<TRIPOS>BOND
     1     1    12 1   
     2     1    21 1   
     3     1    24 2   
     4     2    11 1   
     5     2    16 ar  
     6     2    17 ar  
     7     3    22 1   
     8     3    28 1   
     9     3    29 1   
    10     3    54 1   
    11     4     6 ar  
    12     4    14 ar  
    13     4    30 1   
    14     5     6 ar  
    15     5    15 ar  
    16     5    31 1   
    17     6    32 1   
    18     7     9 ar  
    19     7    16 ar  
    20     7    33 1   
    21     8    22 1   
    22     8    34 1   
    23     8    35 1   
    24     8    36 1   
    25     9    18 ar  
    26     9    25 1   
    27    10    37 1   
    28    10    38 1   
    29    10    39 1   
    30    10    55 1   
    31    11    12 1   
    32    11    27 1   
    33    11    40 1   
    34    12    23 1   
    35    12    41 1   
    36    13    14 ar  
    37    13    15 ar  
    38    13    21 1   
    39    14    27 1   
    40    15    44 1   
    41    16    45 1   
    42    17    18 ar  
    43    17    46 1   
    44    18    47 1   
    45    19    22 1   
    46    19    48 1   
    47    19    49 1   
    48    19    50 1   
    49    20    25 1   
    50    20    51 1   
    51    20    52 1   
    52    20    53 1   
    53    21    54 1   
    54    23    55 1   
    55    26    55 2   
    56    42    54 1   
    57    43    54 1   
@<TRIPOS>SUBSTRUCTURE
     1 5H0         1 TEMP              0 ****  ****    0 ROOT
