@<TRIPOS>MOLECULE
5H1
   17    18     1     0     0
SMALL
No Charge or Current Charge


@<TRIPOS>ATOM
      1 O10         -3.1770     0.4460     0.1930 oh         1 5H1      -0.541100
      2 C5          -1.8680     0.0710     0.1170 ca         1 5H1       0.110100
      3 C6          -1.5380    -1.3010     0.0150 ca         1 5H1      -0.119000
      4 C7          -0.1880    -1.7090    -0.0650 ca         1 5H1      -0.092000
      5 C8           0.8020    -0.7160    -0.0400 ca         1 5H1      -0.084200
      6 N1           2.1770    -0.8810    -0.1050 na         1 5H1      -0.221700
      7 C4          -0.8510     1.0480     0.1400 ca         1 5H1      -0.165000
      8 C9           0.4750     0.6080     0.0590 ca         1 5H1      -0.058800
      9 C3           1.6990     1.3450     0.0580 cc         1 5H1      -0.252200
     10 C2           2.7330     0.4220    -0.0430 cd         1 5H1      -0.157100
     11 HO10        -3.2160     1.4240     0.2590 ho         1 5H1       0.460000
     12 H6          -2.3280    -2.0470    -0.0020 ha         1 5H1       0.126000
     13 H7           0.0740    -2.7620    -0.1440 ha         1 5H1       0.115000
     14 H4          -1.0810     2.1080     0.2180 ha         1 5H1       0.115000
     15 H3           1.8160     2.4250     0.1230 ha         1 5H1       0.204000
     16 H2           3.8080     0.5910    -0.0750 h4         1 5H1       0.210000
     17 HN1          2.6840    -1.7590    -0.1830 hn         1 5H1       0.348000
@<TRIPOS>BOND
     1     1     2 1   
     2     1    11 1   
     3     2     3 ar  
     4     2     7 ar  
     5     3     4 ar  
     6     3    12 1   
     7     4     5 ar  
     8     4    13 1   
     9     5     6 1   
    10     5     8 ar  
    11     6    10 1   
    12     6    17 1   
    13     7     8 ar  
    14     7    14 1   
    15     8     9 1   
    16     9    10 2   
    17     9    15 1   
    18    10    16 1   
@<TRIPOS>SUBSTRUCTURE
     1 5H1         1 TEMP              0 ****  ****    0 ROOT
