@<TRIPOS>MOLECULE
5H1
   17    18     1     0     0
SMALL
bcc


@<TRIPOS>ATOM
      1 O10         -3.1600     0.3910     0.1890 oh         1 5H1      -0.502100
      2 C5          -1.8390     0.0870     0.1180 ca         1 5H1       0.110100
      3 C6          -1.5150    -1.2800     0.0160 ca         1 5H1      -0.137000
      4 C7          -0.2020    -1.6960    -0.0620 ca         1 5H1      -0.110000
      5 C8           0.7970    -0.7250    -0.0390 ca         1 5H1      -0.084200
      6 N1           2.1590    -0.8400    -0.1020 na         1 5H1      -0.171400
      7 C4          -0.8500     1.0520     0.1430 ca         1 5H1      -0.183000
      8 C9           0.4900     0.6480     0.0630 ca         1 5H1      -0.058800
      9 C3           1.7350     1.3480     0.0580 cc         1 5H1      -0.202200
     10 C2           2.7170     0.4010    -0.0440 cd         1 5H1      -0.107100
     11 HO10        -3.2750     1.3460     0.2470 ho         1 5H1       0.421000
     12 H6          -2.3140    -2.0100    -0.0010 ha         1 5H1       0.144000
     13 H7           0.0360    -2.7490    -0.1390 ha         1 5H1       0.133000
     14 H4          -1.1030     2.1040     0.2230 ha         1 5H1       0.133000
     15 H3           1.8850     2.4140     0.1200 ha         1 5H1       0.154000
     16 H2           3.7880     0.5220    -0.0810 h4         1 5H1       0.160000
     17 HN1          2.6740    -1.7000    -0.1840 hn         1 5H1       0.297700
@<TRIPOS>BOND
     1     1     2 1   
     2     1    11 1   
     3     2     3 ar  
     4     2     7 ar  
     5     3     4 ar  
     6     3    12 1   
     7     4     5 ar  
     8     4    13 1   
     9     5     6 1   
    10     5     8 ar  
    11     6    10 1   
    12     6    17 1   
    13     7     8 ar  
    14     7    14 1   
    15     8     9 1   
    16     9    10 2   
    17     9    15 1   
    18    10    16 1   
@<TRIPOS>SUBSTRUCTURE
     1 5H1         1 TEMP              0 ****  ****    0 ROOT
