@<TRIPOS>MOLECULE
5H2
   48    52     1     0     0
SMALL
No Charge or Current Charge


@<TRIPOS>ATOM
      1 C7           3.4350     0.7310     1.0690 ca         1 5H2      -0.150000
      2 C9           1.5490    -0.7360     0.5520 ca         1 5H2      -0.076000
      3 C10          2.3670    -1.4310    -0.3680 ca         1 5H2       0.168100
      4 O4           6.1680     2.1080     1.3480 o          1 5H2      -0.520000
      5 C6           4.2550     0.0290     0.1600 ca         1 5H2       0.019000
      6 C1           8.7120     2.1240     0.3030 c3         1 5H2       0.171900
      7 O2           7.6810     1.2170    -0.1320 os         1 5H2      -0.458100
      8 C3           6.4530     1.3100     0.4650 c          1 5H2       0.647100
      9 C8           2.0920     0.3590     1.2510 ca         1 5H2      -0.059000
     10 O11          1.8280    -2.3540    -1.2380 os         1 5H2      -0.368100
     11 C12          1.4280    -3.6740    -0.8190 c3         1 5H2       0.179600
     12 C13          0.4800    -3.6300     0.4010 c3         1 5H2      -0.047100
     13 C14         -0.3570    -2.3850     0.5480 cc         1 5H2      -0.106300
     14 C15          0.1460    -1.1250     0.7590 cd         1 5H2      -0.137000
     15 S16         -1.1380     0.0790     1.0100 ss         1 5H2       0.245000
     16 C17         -2.3510    -1.1940     0.8150 cd         1 5H2      -0.274500
     17 C18         -1.7770    -2.4230     0.6000 cc         1 5H2      -0.063000
     18 C19         -3.7810    -1.0250     0.8970 cd         1 5H2       0.490000
     19 N20         -4.6730    -2.0070     0.8260 nc         1 5H2      -0.355000
     20 N21         -5.9370    -1.4300     0.8760 nc         1 5H2      -0.353000
     21 C22         -5.7790    -0.1120     0.9730 cd         1 5H2       0.390400
     22 N23         -4.4430     0.1590     1.1200 na         1 5H2      -0.281800
     23 C24         -3.9880     1.3140     0.4700 ca         1 5H2      -0.027200
     24 C25         -3.6260     2.4140     1.2730 ca         1 5H2      -0.081000
     25 C26         -3.1500     3.6010     0.6900 ca         1 5H2      -0.106000
     26 C27         -3.0360     3.7030    -0.7050 ca         1 5H2      -0.084000
     27 C28         -3.4030     2.6180    -1.5180 ca         1 5H2      -0.100000
     28 C29         -3.8790     1.4270    -0.9430 ca         1 5H2       0.128000
     29 Cl          -4.3300     0.1120    -2.0330 cl         1 5H2      -0.158000
     30 C31          3.7000    -1.0380    -0.5680 ca         1 5H2      -0.191000
     31 H1           3.8160     1.5720     1.6400 ha         1 5H2       0.152000
     32 H2           6.0560    -0.2050    -0.8000 hn         1 5H2       0.168000
     33 H3           9.6400     1.9430    -0.2540 h1         1 5H2       0.051700
     34 H4           8.4140     3.1670     0.1360 h1         1 5H2       0.051700
     35 H5           8.9270     1.9900     1.3710 h1         1 5H2       0.051700
     36 H6           1.4810     0.9130     1.9600 ha         1 5H2       0.119000
     37 H7           0.9090    -4.1710    -1.6490 h1         1 5H2       0.052200
     38 H8           2.3070    -4.2840    -0.5710 h1         1 5H2       0.052200
     39 H9          -0.1590    -4.5210     0.3740 hc         1 5H2       0.059700
     40 H10          1.0930    -3.7380     1.3030 hc         1 5H2       0.059700
     41 H11         -2.3330    -3.3490     0.4780 ha         1 5H2       0.155000
     42 H12         -6.5460     0.6520     0.9450 h5         1 5H2       0.068100
     43 H13         -3.7080     2.3460     2.3560 ha         1 5H2       0.136000
     44 H14         -2.8700     4.4410     1.3220 ha         1 5H2       0.128000
     45 H15         -2.6680     4.6220    -1.1560 ha         1 5H2       0.126000
     46 H16         -3.3190     2.7000    -2.5990 ha         1 5H2       0.139000
     47 H17          4.2980    -1.5600    -1.3090 ha         1 5H2       0.125000
     48 N5           5.6150     0.3590    -0.0860 ns         1 5H2      -0.138000
@<TRIPOS>BOND
     1     1     5 ar  
     2     1     9 ar  
     3     1    31 1   
     4     2     3 ar  
     5     2     9 ar  
     6     2    14 1   
     7     3    10 1   
     8     3    30 ar  
     9     4     8 2   
    10     5    30 ar  
    11     5    48 1   
    12     6     7 1   
    13     6    33 1   
    14     6    34 1   
    15     6    35 1   
    16     7     8 1   
    17     8    48 1   
    18     9    36 1   
    19    10    11 1   
    20    11    12 1   
    21    11    37 1   
    22    11    38 1   
    23    12    13 1   
    24    12    39 1   
    25    12    40 1   
    26    13    14 2   
    27    13    17 1   
    28    14    15 1   
    29    15    16 1   
    30    16    17 2   
    31    16    18 1   
    32    17    41 1   
    33    18    19 2   
    34    18    22 1   
    35    19    20 1   
    36    20    21 2   
    37    21    22 1   
    38    21    42 1   
    39    22    23 1   
    40    23    24 ar  
    41    23    28 ar  
    42    24    25 ar  
    43    24    43 1   
    44    25    26 ar  
    45    25    44 1   
    46    26    27 ar  
    47    26    45 1   
    48    27    28 ar  
    49    27    46 1   
    50    28    29 1   
    51    30    47 1   
    52    32    48 1   
@<TRIPOS>SUBSTRUCTURE
     1 5H2         1 TEMP              0 ****  ****    0 ROOT
