@<TRIPOS>MOLECULE
5H2
   48    52     1     0     0
SMALL
abcg2


@<TRIPOS>ATOM
      1 C7           3.3280     0.7950     0.7720 ca         1 5H2      -0.150000
      2 C9           1.4760    -0.7040     0.2900 ca         1 5H2      -0.076000
      3 C10          2.3470    -1.4960    -0.4730 ca         1 5H2       0.168100
      4 O4           5.9050     2.1480     1.0580 o          1 5H2      -0.520000
      5 C6           4.1910    -0.0130     0.0280 ca         1 5H2       0.019000
      6 C1           8.4810     2.1230     0.3390 c3         1 5H2       0.171900
      7 O2           7.5490     1.1340    -0.0900 os         1 5H2      -0.458100
      8 C3           6.2950     1.2590     0.3370 c          1 5H2       0.647100
      9 C8           1.9960     0.4380     0.8920 ca         1 5H2      -0.059000
     10 O11          1.8710    -2.5300    -1.2110 os         1 5H2      -0.368100
     11 C12          1.4630    -3.7380    -0.5740 c3         1 5H2       0.179600
     12 C13          0.6580    -3.5240     0.7020 c3         1 5H2      -0.047100
     13 C14         -0.3330    -2.4110     0.5870 cc         1 5H2      -0.106300
     14 C15          0.0880    -1.1150     0.4230 cd         1 5H2      -0.137000
     15 S16         -1.2280    -0.0120     0.3960 ss         1 5H2       0.245000
     16 C17         -2.3690    -1.2910     0.6140 cd         1 5H2      -0.274500
     17 C18         -1.7380    -2.5050     0.6930 cc         1 5H2      -0.063000
     18 C19         -3.7970    -1.0980     0.7060 cd         1 5H2       0.490000
     19 N20         -4.6620    -2.0530     0.9310 nc         1 5H2      -0.355000
     20 N21         -5.9000    -1.5060     0.9440 nc         1 5H2      -0.353000
     21 C22         -5.7740    -0.2340     0.7300 cd         1 5H2       0.390400
     22 N23         -4.4640     0.0850     0.5760 na         1 5H2      -0.281800
     23 C24         -3.9340     1.3650     0.2920 ca         1 5H2      -0.027200
     24 C25         -3.6780     2.2520     1.3270 ca         1 5H2      -0.081000
     25 C26         -3.1370     3.4970     1.0510 ca         1 5H2      -0.106000
     26 C27         -2.8510     3.8490    -0.2600 ca         1 5H2      -0.084000
     27 C28         -3.1100     2.9690    -1.3020 ca         1 5H2      -0.100000
     28 C29         -3.6550     1.7280    -1.0220 ca         1 5H2       0.128000
     29 CL          -3.9660     0.6120    -2.2970 cl         1 5H2      -0.158000
     30 C31          3.6830    -1.1600    -0.5880 ca         1 5H2      -0.191000
     31 H1           3.6770     1.6900     1.2590 ha         1 5H2       0.152000
     32 H2           6.0350    -0.4260    -0.7420 hn         1 5H2       0.168000
     33 H3           9.4280     1.8540    -0.1180 h1         1 5H2       0.051700
     34 H4           8.1910     3.1190     0.0050 h1         1 5H2       0.051700
     35 H5           8.5930     2.1240     1.4230 h1         1 5H2       0.051700
     36 H6           1.3450     1.0660     1.4880 ha         1 5H2       0.119000
     37 H7           0.8600    -4.2540    -1.3200 h1         1 5H2       0.052200
     38 H8           2.3370    -4.3600    -0.3530 h1         1 5H2       0.052200
     39 H9           0.1640    -4.4660     0.9470 hc         1 5H2       0.059700
     40 H10          1.3400    -3.3110     1.5310 hc         1 5H2       0.059700
     41 H11         -2.2710    -3.4350     0.8360 ha         1 5H2       0.155000
     42 H12         -6.5670     0.4960     0.6740 h5         1 5H2       0.068100
     43 H13         -3.8970     1.9520     2.3440 ha         1 5H2       0.136000
     44 H14         -2.9360     4.1870     1.8590 ha         1 5H2       0.128000
     45 H15         -2.4230     4.8160    -0.4830 ha         1 5H2       0.126000
     46 H16         -2.8880     3.2460    -2.3230 ha         1 5H2       0.139000
     47 H17          4.3310    -1.7850    -1.1920 ha         1 5H2       0.125000
     48 N5           5.5450     0.2400    -0.1630 ns         1 5H2      -0.138000
@<TRIPOS>BOND
     1     1     5 ar  
     2     1     9 ar  
     3     1    31 1   
     4     2     3 ar  
     5     2     9 ar  
     6     2    14 1   
     7     3    10 1   
     8     3    30 ar  
     9     4     8 2   
    10     5    30 ar  
    11     5    48 1   
    12     6     7 1   
    13     6    33 1   
    14     6    34 1   
    15     6    35 1   
    16     7     8 1   
    17     8    48 1   
    18     9    36 1   
    19    10    11 1   
    20    11    12 1   
    21    11    37 1   
    22    11    38 1   
    23    12    13 1   
    24    12    39 1   
    25    12    40 1   
    26    13    14 2   
    27    13    17 1   
    28    14    15 1   
    29    15    16 1   
    30    16    17 2   
    31    16    18 1   
    32    17    41 1   
    33    18    19 2   
    34    18    22 1   
    35    19    20 1   
    36    20    21 2   
    37    21    22 1   
    38    21    42 1   
    39    22    23 1   
    40    23    24 ar  
    41    23    28 ar  
    42    24    25 ar  
    43    24    43 1   
    44    25    26 ar  
    45    25    44 1   
    46    26    27 ar  
    47    26    45 1   
    48    27    28 ar  
    49    27    46 1   
    50    28    29 1   
    51    30    47 1   
    52    32    48 1   
@<TRIPOS>SUBSTRUCTURE
     1 5H2         1 TEMP              0 ****  ****    0 ROOT
