@<TRIPOS>MOLECULE
5H3
   45    47     1     0     0
SMALL
abcg2


@<TRIPOS>ATOM
      1 F23         -8.1280     0.3970     1.1620 f          1 5H3      -0.182000
      2 C23         -7.0840     0.9460     0.5170 ca         1 5H3       0.171000
      3 C24         -7.3270     1.8840    -0.4670 ca         1 5H3      -0.153000
      4 C25         -6.2340     2.4380    -1.1200 ca         1 5H3      -0.083000
      5 C22         -5.8080     0.5480     0.8670 ca         1 5H3      -0.152000
      6 C21         -4.7150     1.1070     0.2080 ca         1 5H3      -0.052300
      7 C26         -4.9420     2.0530    -0.7880 ca         1 5H3      -0.123000
      8 C20         -3.3210     0.6530     0.5340 c3         1 5H3      -0.039100
      9 C19         -2.9380    -0.5880    -0.2700 c3         1 5H3       0.162800
     10 N18         -1.5800    -0.9910     0.0290 n7         1 5H3      -0.867400
     11 C17         -1.1570    -2.1590    -0.7140 c3         1 5H3       0.206100
     12 C15          0.2900    -2.4930    -0.4550 ca         1 5H3      -0.061300
     13 C14          0.7050    -3.8170    -0.3580 ca         1 5H3      -0.133000
     14 C13          2.0470    -4.1140    -0.1670 ca         1 5H3      -0.082000
     15 C12          2.9820    -3.0990    -0.0430 ca         1 5H3      -0.159000
     16 C16          1.2310    -1.4740    -0.3480 ca         1 5H3      -0.128000
     17 C11          2.5760    -1.7680    -0.1320 ca         1 5H3       0.285000
     18 N07          3.5390    -0.7560    -0.0570 nu         1 5H3      -0.965200
     19 C06          3.4070     0.4300     0.6400 ce         1 5H3       0.702800
     20 N08          2.4630     0.7790     1.4200 n2         1 5H3      -0.803100
     21 C05          4.5080     1.3760     0.4060 cc         1 5H3      -0.285900
     22 S01          5.4320     1.3620    -1.0510 ss         1 5H3       0.216000
     23 C02          6.3800     2.6860    -0.5300 cc         1 5H3      -0.237000
     24 C03          6.0000     3.1240     0.7040 cd         1 5H3      -0.141000
     25 C04          4.9240     2.3750     1.2400 cd         1 5H3      -0.075000
     26 H1          -8.3390     2.1770    -0.7130 ha         1 5H3       0.131000
     27 H2          -6.3940     3.1770    -1.8940 ha         1 5H3       0.117000
     28 H3          -5.6660    -0.1910     1.6470 ha         1 5H3       0.129000
     29 H4          -4.1000     2.4960    -1.3060 ha         1 5H3       0.120000
     30 H5          -2.6060     1.4500     0.3210 hc         1 5H3       0.058700
     31 H6          -3.2410     0.4290     1.6020 hc         1 5H3       0.058700
     32 H7          -3.6760    -1.3840    -0.0810 h1         1 5H3       0.034200
     33 H8          -3.0020    -0.3570    -1.3380 h1         1 5H3       0.034200
     34 H9          -1.5000    -1.1850     1.0210 hn         1 5H3       0.412000
     35 H11         -1.7740    -3.0480    -0.5140 h1         1 5H3       0.039200
     36 H12         -1.2850    -1.9420    -1.7800 h1         1 5H3       0.039200
     37 H13         -0.0220    -4.6170    -0.4330 ha         1 5H3       0.113000
     38 H14          2.3680    -5.1450    -0.0950 ha         1 5H3       0.114000
     39 H15          4.0260    -3.3350     0.1260 ha         1 5H3       0.113000
     40 H16          0.9010    -0.4480    -0.4530 ha         1 5H3       0.143000
     41 H17          4.4860    -1.0570    -0.2330 hn         1 5H3       0.488000
     42 H18          1.7950     0.0290     1.5730 hn         1 5H3       0.392400
     43 H19          7.1610     3.0760    -1.1630 h4         1 5H3       0.151000
     44 H20          6.4740     3.9500     1.2140 ha         1 5H3       0.137000
     45 H21          4.4790     2.5550     2.2070 ha         1 5H3       0.152000
@<TRIPOS>BOND
     1     1     2 1   
     2     2     3 ar  
     3     2     5 ar  
     4     3     4 ar  
     5     3    26 1   
     6     4     7 ar  
     7     4    27 1   
     8     5     6 ar  
     9     5    28 1   
    10     6     7 ar  
    11     6     8 1   
    12     7    29 1   
    13     8     9 1   
    14     8    30 1   
    15     8    31 1   
    16     9    10 1   
    17     9    32 1   
    18     9    33 1   
    19    10    11 1   
    20    10    34 1   
    21    11    12 1   
    22    11    35 1   
    23    11    36 1   
    24    12    13 ar  
    25    12    16 ar  
    26    13    14 ar  
    27    13    37 1   
    28    14    15 ar  
    29    14    38 1   
    30    15    17 ar  
    31    15    39 1   
    32    16    17 ar  
    33    16    40 1   
    34    17    18 1   
    35    18    19 1   
    36    18    41 1   
    37    19    20 2   
    38    19    21 1   
    39    20    42 1   
    40    21    22 1   
    41    21    25 2   
    42    22    23 1   
    43    23    24 2   
    44    23    43 1   
    45    24    25 1   
    46    24    44 1   
    47    25    45 1   
@<TRIPOS>SUBSTRUCTURE
     1 5H3         1 TEMP              0 ****  ****    0 ROOT
