@<TRIPOS>MOLECULE
5H3
   45    47     1     0     0
SMALL
No Charge or Current Charge


@<TRIPOS>ATOM
      1 F23         -8.6970    -0.4080     0.3000 f          1 5H3      -0.182000
      2 C23         -7.6120     0.3850     0.1640 ca         1 5H3       0.171000
      3 C24         -7.7580     1.6840    -0.3460 ca         1 5H3      -0.153000
      4 C25         -6.6280     2.5080    -0.4890 ca         1 5H3      -0.083000
      5 C22         -6.3460    -0.0960     0.5330 ca         1 5H3      -0.152000
      6 C21         -5.2100     0.7250     0.3940 ca         1 5H3      -0.052300
      7 C26         -5.3590     2.0280    -0.1200 ca         1 5H3      -0.123000
      8 C20         -3.8330     0.2060     0.7870 c3         1 5H3      -0.039100
      9 C19         -3.1020    -0.4490    -0.4010 c3         1 5H3       0.162800
     10 N18         -1.7720    -0.9350     0.0120 n7         1 5H3      -0.867400
     11 C17         -0.9740    -1.5590    -1.0590 c3         1 5H3       0.206100
     12 C15          0.3610    -2.0490    -0.5140 ca         1 5H3      -0.061300
     13 C14          0.5550    -3.4120    -0.2200 ca         1 5H3      -0.133000
     14 C13          1.7940    -3.8610     0.2660 ca         1 5H3      -0.082000
     15 C12          2.8420    -2.9460     0.4670 ca         1 5H3      -0.159000
     16 C16          1.4180    -1.1400    -0.3070 ca         1 5H3      -0.128000
     17 C11          2.6580    -1.5810     0.1970 ca         1 5H3       0.285000
     18 N07          3.7320    -0.7130     0.4070 nu         1 5H3      -0.965200
     19 C06          3.8190     0.6490     0.5600 ce         1 5H3       0.702800
     20 N08          2.8330     1.2990     1.0250 n2         1 5H3      -0.803100
     21 C05          5.0790     1.3120     0.2570 cc         1 5H3      -0.285900
     22 S01          6.4390     0.4380    -0.4530 ss         1 5H3       0.216000
     23 C02          7.4240     1.8960    -0.4830 cc         1 5H3      -0.237000
     24 C03          6.7270     2.9650     0.0160 cd         1 5H3      -0.141000
     25 C04          5.4080     2.6380     0.4290 cd         1 5H3      -0.075000
     26 H1          -8.7420     2.0490    -0.6290 ha         1 5H3       0.131000
     27 H2          -6.7350     3.5160    -0.8850 ha         1 5H3       0.117000
     28 H3          -6.2510    -1.1060     0.9240 ha         1 5H3       0.129000
     29 H4          -4.4890     2.6710    -0.2360 ha         1 5H3       0.120000
     30 H5          -3.2190     1.0280     1.1760 hc         1 5H3       0.058700
     31 H6          -3.9230    -0.5220     1.6020 hc         1 5H3       0.058700
     32 H7          -3.7130    -1.2800    -0.7810 h1         1 5H3       0.034200
     33 H8          -3.0050     0.2900    -1.2080 h1         1 5H3       0.034200
     34 H9          -1.8990    -1.6350     0.7510 hn         1 5H3       0.412000
     35 H11         -1.5180    -2.4070    -1.4980 h1         1 5H3       0.039200
     36 H12         -0.7870    -0.8390    -1.8680 h1         1 5H3       0.039200
     37 H13         -0.2520    -4.1260    -0.3740 ha         1 5H3       0.113000
     38 H14          1.9420    -4.9160     0.4860 ha         1 5H3       0.114000
     39 H15          3.7960    -3.3030     0.8450 ha         1 5H3       0.113000
     40 H16          1.2670    -0.0960    -0.5600 ha         1 5H3       0.143000
     41 H17          4.6390    -1.1660     0.4460 hn         1 5H3       0.488000
     42 H18          2.1260     0.5950     1.2570 hn         1 5H3       0.392400
     43 H19          8.4350     1.8530    -0.8670 h4         1 5H3       0.151000
     44 H20          7.1420     3.9670     0.0880 ha         1 5H3       0.137000
     45 H21          4.7220     3.3720     0.8450 ha         1 5H3       0.152000
@<TRIPOS>BOND
     1     1     2 1   
     2     2     3 ar  
     3     2     5 ar  
     4     3     4 ar  
     5     3    26 1   
     6     4     7 ar  
     7     4    27 1   
     8     5     6 ar  
     9     5    28 1   
    10     6     7 ar  
    11     6     8 1   
    12     7    29 1   
    13     8     9 1   
    14     8    30 1   
    15     8    31 1   
    16     9    10 1   
    17     9    32 1   
    18     9    33 1   
    19    10    11 1   
    20    10    34 1   
    21    11    12 1   
    22    11    35 1   
    23    11    36 1   
    24    12    13 ar  
    25    12    16 ar  
    26    13    14 ar  
    27    13    37 1   
    28    14    15 ar  
    29    14    38 1   
    30    15    17 ar  
    31    15    39 1   
    32    16    17 ar  
    33    16    40 1   
    34    17    18 1   
    35    18    19 1   
    36    18    41 1   
    37    19    20 2   
    38    19    21 1   
    39    20    42 1   
    40    21    22 1   
    41    21    25 2   
    42    22    23 1   
    43    23    24 2   
    44    23    43 1   
    45    24    25 1   
    46    24    44 1   
    47    25    45 1   
@<TRIPOS>SUBSTRUCTURE
     1 5H3         1 TEMP              0 ****  ****    0 ROOT
