@<TRIPOS>MOLECULE
5H4
   51    53     1     0     0
SMALL
bcc


@<TRIPOS>ATOM
      1 F33          2.0540     4.3670    -2.1010 f          1 5H4      -0.144900
      2 C33          3.0370     3.7900    -1.3870 ca         1 5H4       0.136900
      3 C34          3.9540     4.5970    -0.7430 ca         1 5H4      -0.171000
      4 C35          4.9600     3.9810    -0.0110 ca         1 5H4      -0.102000
      5 C36          5.0330     2.5970     0.0670 ca         1 5H4      -0.144000
      6 C32          3.0880     2.4110    -1.3250 ca         1 5H4      -0.168000
      7 C31          4.1010     1.7980    -0.5910 ca         1 5H4      -0.053300
      8 C22          4.1380     0.3010    -0.4710 c3         1 5H4      -0.036100
      9 C21          3.2050    -0.1870     0.6390 c3         1 5H4       0.173800
     10 N18          3.2120    -1.6350     0.7580 n3         1 5H4      -0.740600
     11 C19          4.3310    -2.1270     1.5460 c3         1 5H4       0.175800
     12 C20          4.6940    -3.5680     1.2290 c3         1 5H4      -0.091100
     13 C17          1.9380    -2.1480     1.2130 c3         1 5H4       0.219100
     14 C15          0.8600    -2.0290     0.1650 ca         1 5H4      -0.060300
     15 C14          1.1480    -2.2260    -1.1830 ca         1 5H4      -0.128000
     16 C13          0.1340    -2.1480    -2.1260 ca         1 5H4      -0.108000
     17 C12         -1.1740    -1.8800    -1.7490 ca         1 5H4      -0.160000
     18 C11         -1.4680    -1.6630    -0.4040 ca         1 5H4       0.143600
     19 C16         -0.4440    -1.7350     0.5400 ca         1 5H4      -0.176000
     20 N07         -2.7760    -1.4110     0.0300 nu         1 5H4      -0.770600
     21 C06         -3.6370    -0.4940    -0.5410 ce         1 5H4       0.701800
     22 N08         -3.3960     0.3190    -1.4900 n2         1 5H4      -0.805100
     23 C05         -4.9860    -0.5060     0.0450 cc         1 5H4      -0.142000
     24 S01         -5.6450    -1.9060     0.8070 ss         1 5H4      -0.073800
     25 C02         -7.1160    -1.1030     1.1410 cc         1 5H4      -0.110100
     26 C03         -7.1060     0.1810     0.6820 cd         1 5H4      -0.159000
     27 C04         -5.8860     0.5220     0.0500 cd         1 5H4      -0.093000
     28 H1           3.8870     5.6750    -0.8130 ha         1 5H4       0.149000
     29 H2           5.6930     4.5900     0.5010 ha         1 5H4       0.134000
     30 H3           5.8260     2.1310     0.6390 ha         1 5H4       0.133000
     31 H4           2.3470     1.8180    -1.8480 ha         1 5H4       0.151000
     32 H5           3.8280    -0.1650    -1.4090 hc         1 5H4       0.056200
     33 H6           5.1630    -0.0250    -0.2760 hc         1 5H4       0.056200
     34 H7           3.4670     0.3030     1.5900 h1         1 5H4       0.038700
     35 H8           2.1920     0.1420     0.3960 h1         1 5H4       0.038700
     36 H10          5.1990    -1.5020     1.3280 h1         1 5H4       0.029700
     37 H11          4.1450    -2.0140     2.6270 h1         1 5H4       0.029700
     38 H12          3.8920    -4.2660     1.4720 hc         1 5H4       0.038033
     39 H13          4.9280    -3.6800     0.1700 hc         1 5H4       0.038033
     40 H14          5.5680    -3.8720     1.8050 hc         1 5H4       0.038033
     41 H15          2.0550    -3.2080     1.4560 h1         1 5H4       0.040200
     42 H16          1.5980    -1.6640     2.1440 h1         1 5H4       0.040200
     43 H17          2.1660    -2.4330    -1.4850 ha         1 5H4       0.150000
     44 H18          0.3580    -2.3100    -3.1720 ha         1 5H4       0.134000
     45 H19         -1.9560    -1.8590    -2.4960 ha         1 5H4       0.145000
     46 H20         -0.6700    -1.5500     1.5850 ha         1 5H4       0.128000
     47 H21         -2.9490    -1.6280     1.0000 hn         1 5H4       0.430800
     48 H22         -2.4210     0.2980    -1.7740 hn         1 5H4       0.390400
     49 H23         -7.9130    -1.6210     1.6520 h4         1 5H4       0.169000
     50 H24         -7.9390     0.8600     0.7940 ha         1 5H4       0.156000
     51 H25         -5.6700     1.4910    -0.3760 ha         1 5H4       0.171000
@<TRIPOS>BOND
     1     1     2 1   
     2     2     3 ar  
     3     2     6 ar  
     4     3     4 ar  
     5     3    28 1   
     6     4     5 ar  
     7     4    29 1   
     8     5     7 ar  
     9     5    30 1   
    10     6     7 ar  
    11     6    31 1   
    12     7     8 1   
    13     8     9 1   
    14     8    32 1   
    15     8    33 1   
    16     9    10 1   
    17     9    34 1   
    18     9    35 1   
    19    10    11 1   
    20    10    13 1   
    21    11    12 1   
    22    11    36 1   
    23    11    37 1   
    24    12    38 1   
    25    12    39 1   
    26    12    40 1   
    27    13    14 1   
    28    13    41 1   
    29    13    42 1   
    30    14    15 ar  
    31    14    19 ar  
    32    15    16 ar  
    33    15    43 1   
    34    16    17 ar  
    35    16    44 1   
    36    17    18 ar  
    37    17    45 1   
    38    18    19 ar  
    39    18    20 1   
    40    19    46 1   
    41    20    21 1   
    42    20    47 1   
    43    21    22 2   
    44    21    23 1   
    45    22    48 1   
    46    23    24 1   
    47    23    27 2   
    48    24    25 1   
    49    25    26 2   
    50    25    49 1   
    51    26    27 1   
    52    26    50 1   
    53    27    51 1   
@<TRIPOS>SUBSTRUCTURE
     1 5H4         1 TEMP              0 ****  ****    0 ROOT
