@<TRIPOS>MOLECULE
5H4
   51    53     1     0     0
SMALL
No Charge or Current Charge


@<TRIPOS>ATOM
      1 F33          2.0870     3.9540    -2.7350 f          1 5H4      -0.180000
      2 C33          2.7680     3.5930    -1.6250 ca         1 5H4       0.172000
      3 C34          3.0790     4.5580    -0.6550 ca         1 5H4      -0.153000
      4 C35          3.7860     4.1820     0.5010 ca         1 5H4      -0.084000
      5 C36          4.1780     2.8430     0.6780 ca         1 5H4      -0.126000
      6 C32          3.1580     2.2570    -1.4500 ca         1 5H4      -0.150000
      7 C31          3.8680     1.8730    -0.2960 ca         1 5H4      -0.053300
      8 C22          4.2850     0.4210    -0.1000 c3         1 5H4      -0.036100
      9 C21          3.1460    -0.4230     0.5160 c3         1 5H4       0.173800
     10 N18          3.3730    -1.8990     0.5260 n3         1 5H4      -0.740600
     11 C19          4.5440    -2.3030     1.3540 c3         1 5H4       0.175800
     12 C20          4.9510    -3.7870     1.2320 c3         1 5H4      -0.091100
     13 C17          2.1310    -2.6490     0.8700 c3         1 5H4       0.219100
     14 C15          0.9650    -2.3830    -0.0810 ca         1 5H4      -0.060300
     15 C14          1.0510    -2.7760    -1.4290 ca         1 5H4      -0.110000
     16 C13         -0.0180    -2.5340    -2.3070 ca         1 5H4      -0.090000
     17 C12         -1.1770    -1.8880    -1.8420 ca         1 5H4      -0.142000
     18 C11         -1.2690    -1.4740    -0.4990 ca         1 5H4       0.282000
     19 C16         -0.2020    -1.7370     0.3760 ca         1 5H4      -0.158000
     20 N07         -2.4030    -0.8370     0.0110 nu         1 5H4      -0.964200
     21 C06         -3.4390    -0.1560    -0.5810 ce         1 5H4       0.701800
     22 N08         -3.2640     0.4180    -1.7000 n2         1 5H4      -0.805100
     23 C05         -4.7000    -0.0360     0.1360 cc         1 5H4      -0.286900
     24 S01         -4.9840    -0.8780     1.6620 ss         1 5H4       0.216000
     25 C02         -6.6140    -0.2260     1.7750 cc         1 5H4      -0.237000
     26 C03         -6.8960     0.5720     0.6980 cd         1 5H4      -0.141000
     27 C04         -5.8220     0.6770    -0.2250 cd         1 5H4      -0.075000
     28 H1           2.7730     5.5910    -0.7980 ha         1 5H4       0.131000
     29 H2           4.0290     4.9250     1.2570 ha         1 5H4       0.116000
     30 H3           4.7220     2.5590     1.5770 ha         1 5H4       0.115000
     31 H4           2.9060     1.5210    -2.2110 ha         1 5H4       0.133000
     32 H5           4.5710    -0.0180    -1.0630 hc         1 5H4       0.056200
     33 H6           5.1730     0.3750     0.5400 hc         1 5H4       0.056200
     34 H7           2.9580    -0.0650     1.5380 h1         1 5H4       0.038700
     35 H8           2.2450    -0.1930    -0.0660 h1         1 5H4       0.038700
     36 H10          5.4260    -1.7230     1.0570 h1         1 5H4       0.029700
     37 H11          4.3540    -2.0770     2.4120 h1         1 5H4       0.029700
     38 H12          4.2110    -4.4460     1.7000 hc         1 5H4       0.038033
     39 H13          5.0640    -4.0720     0.1800 hc         1 5H4       0.038033
     40 H14          5.9090    -3.9540     1.7370 hc         1 5H4       0.038033
     41 H15          2.3150    -3.7300     0.8430 h1         1 5H4       0.040200
     42 H16          1.8220    -2.4080     1.8970 h1         1 5H4       0.040200
     43 H17          1.9490    -3.2710    -1.7930 ha         1 5H4       0.132000
     44 H18          0.0490    -2.8510    -3.3460 ha         1 5H4       0.116000
     45 H19         -2.0040    -1.7360    -2.5280 ha         1 5H4       0.127000
     46 H20         -0.2710    -1.4270     1.4150 ha         1 5H4       0.110000
     47 H21         -2.4960    -0.8860     1.0190 hn         1 5H4       0.486000
     48 H22         -2.2760     0.2730    -1.9280 hn         1 5H4       0.390400
     49 H23         -7.2370    -0.4830     2.6230 h4         1 5H4       0.151000
     50 H24         -7.8490     1.0750     0.5620 ha         1 5H4       0.138000
     51 H25         -5.8820     1.2690    -1.1350 ha         1 5H4       0.153000
@<TRIPOS>BOND
     1     1     2 1   
     2     2     3 ar  
     3     2     6 ar  
     4     3     4 ar  
     5     3    28 1   
     6     4     5 ar  
     7     4    29 1   
     8     5     7 ar  
     9     5    30 1   
    10     6     7 ar  
    11     6    31 1   
    12     7     8 1   
    13     8     9 1   
    14     8    32 1   
    15     8    33 1   
    16     9    10 1   
    17     9    34 1   
    18     9    35 1   
    19    10    11 1   
    20    10    13 1   
    21    11    12 1   
    22    11    36 1   
    23    11    37 1   
    24    12    38 1   
    25    12    39 1   
    26    12    40 1   
    27    13    14 1   
    28    13    41 1   
    29    13    42 1   
    30    14    15 ar  
    31    14    19 ar  
    32    15    16 ar  
    33    15    43 1   
    34    16    17 ar  
    35    16    44 1   
    36    17    18 ar  
    37    17    45 1   
    38    18    19 ar  
    39    18    20 1   
    40    19    46 1   
    41    20    21 1   
    42    20    47 1   
    43    21    22 2   
    44    21    23 1   
    45    22    48 1   
    46    23    24 1   
    47    23    27 2   
    48    24    25 1   
    49    25    26 2   
    50    25    49 1   
    51    26    27 1   
    52    26    50 1   
    53    27    51 1   
@<TRIPOS>SUBSTRUCTURE
     1 5H4         1 TEMP              0 ****  ****    0 ROOT
