@<TRIPOS>MOLECULE
5H6
   17    18     1     0     0
SMALL
No Charge or Current Charge


@<TRIPOS>ATOM
      1 C10         -1.5450     1.6410     0.0190 cc         1 5H6      -0.129000
      2 O01          5.1750    -0.1410     0.0340 o          1 5H6      -0.694500
      3 O03          3.9760    -1.9130    -0.0150 o          1 5H6      -0.694500
      4 C04          2.8260     0.1520     0.0220 cc         1 5H6       0.202500
      5 C05          1.5360    -0.4280    -0.0020 cc         1 5H6      -0.168000
      6 C06          0.6900     0.6260     0.0150 cd         1 5H6       0.165500
      7 O07          1.3800     1.8060     0.0470 os         1 5H6      -0.114700
      8 N08          2.7870     1.4880     0.0520 nd         1 5H6      -0.337300
      9 C09         -0.7410     0.5290     0.0010 cd         1 5H6      -0.208500
     10 C11         -2.9260     1.3160     0.0010 cc         1 5H6      -0.119000
     11 C12         -3.1710    -0.0340    -0.0320 cd         1 5H6      -0.059000
     12 Cl          -4.7440    -0.7660    -0.0620 cl         1 5H6      -0.169000
     13 S14         -1.6690    -0.9830    -0.0410 ss         1 5H6       0.260000
     14 H1          -1.1880     2.6670     0.0450 ha         1 5H6       0.149000
     15 H3           1.3030    -1.4860    -0.0280 ha         1 5H6       0.154000
     16 H4          -3.7030     2.0740     0.0110 ha         1 5H6       0.134000
     17 C02          4.0800    -0.6920     0.0130 c          1 5H6       0.629500
@<TRIPOS>BOND
     1     1     9 2   
     2     1    10 1   
     3     1    14 1   
     4     2    17 1   
     5     3    17 1   
     6     4     5 1   
     7     4     8 2   
     8     4    17 1   
     9     5     6 2   
    10     5    15 1   
    11     6     7 1   
    12     6     9 1   
    13     7     8 1   
    14     9    13 1   
    15    10    11 2   
    16    10    16 1   
    17    11    12 1   
    18    11    13 1   
@<TRIPOS>SUBSTRUCTURE
     1 5H6         1 TEMP              0 ****  ****    0 ROOT
