@<TRIPOS>MOLECULE
5H6
   17    18     1     0     0
SMALL
abcg2


@<TRIPOS>ATOM
      1 C10         -1.5570     1.6790     0.0160 cc         1 5H6      -0.129000
      2 O01          5.1590     0.1230     0.0630 o          1 5H6      -0.694500
      3 O03          4.1190    -1.8580    -0.0270 o          1 5H6      -0.694500
      4 C04          2.8080     0.0630     0.0180 cc         1 5H6       0.202500
      5 C05          1.5390    -0.5670    -0.0120 cc         1 5H6      -0.168000
      6 C06          0.6640     0.4700     0.0080 cd         1 5H6       0.165500
      7 O07          1.3470     1.6210     0.0450 os         1 5H6      -0.114700
      8 N08          2.6850     1.3600     0.0520 nd         1 5H6      -0.337300
      9 C09         -0.7730     0.5580    -0.0010 cd         1 5H6      -0.208500
     10 C11         -2.9420     1.3880     0.0020 cc         1 5H6      -0.119000
     11 C12         -3.1750     0.0490    -0.0250 cd         1 5H6      -0.059000
     12 CL          -4.6900    -0.7310    -0.0500 cl         1 5H6      -0.169000
     13 S14         -1.7300    -0.8790    -0.0340 ss         1 5H6       0.260000
     14 H1          -1.1640     2.6850     0.0360 ha         1 5H6       0.149000
     15 H3           1.3310    -1.6230    -0.0420 ha         1 5H6       0.154000
     16 H4          -3.7210     2.1360     0.0130 ha         1 5H6       0.134000
     17 C02          4.1660    -0.6180     0.0180 c          1 5H6       0.629500
@<TRIPOS>BOND
     1     1     9 2   
     2     1    10 1   
     3     1    14 1   
     4     2    17 1   
     5     3    17 1   
     6     4     5 1   
     7     4     8 2   
     8     4    17 1   
     9     5     6 2   
    10     5    15 1   
    11     6     7 1   
    12     6     9 1   
    13     7     8 1   
    14     9    13 1   
    15    10    11 2   
    16    10    16 1   
    17    11    12 1   
    18    11    13 1   
@<TRIPOS>SUBSTRUCTURE
     1 5H6         1 TEMP              0 ****  ****    0 ROOT
