@<TRIPOS>MOLECULE
5H7
   55    58     1     0     0
SMALL
No Charge or Current Charge


@<TRIPOS>ATOM
      1 C1         -41.2950    -1.9200     4.2510 c6         1 5H7      -0.062700
      2 C2         -40.9750    -2.7570     5.5200 c6         1 5H7      -0.073400
      3 C3         -40.5570    -4.2040     5.1500 c6         1 5H7       0.165500
      4 C11        -38.9610    -3.1560     0.4130 ca         1 5H7      -0.070000
      5 C12        -40.9730    -2.5330    -1.0860 c          1 5H7       0.515600
      6 C13        -42.4440    -2.1810    -0.8740 ca         1 5H7       0.274500
      7 C14        -43.2610    -1.8280    -1.9730 ca         1 5H7      -0.067000
      8 C15        -44.6120    -1.4890    -1.7580 ca         1 5H7      -0.122000
      9 C16        -45.1050    -1.5110    -0.4430 ca         1 5H7       0.164000
     10 C17        -44.2350    -1.8780     0.6200 cp         1 5H7       0.383500
     11 C18        -44.6630    -1.9120     2.0430 cp         1 5H7      -0.227500
     12 C19        -45.0890    -0.7340     2.6970 ca         1 5H7       0.223000
     13 C20        -45.4680    -0.7520     4.0490 ca         1 5H7      -0.170500
     14 C21        -45.4300    -1.9520     4.7770 ca         1 5H7      -0.044000
     15 C22        -45.0130    -3.1330     4.1420 ca         1 5H7      -0.170500
     16 C23        -44.6340    -3.1130     2.7910 ca         1 5H7       0.223000
     17 F2         -44.2480    -4.2710     2.2110 f          1 5H7      -0.166000
     18 F1         -45.1130     0.4420     2.0320 f          1 5H7      -0.166000
     19 F          -46.4030    -1.1970    -0.2130 f          1 5H7      -0.155000
     20 N3         -42.9410    -2.2040     0.3990 nb         1 5H7      -0.658000
     21 O          -40.4320    -2.5390    -2.1900 o          1 5H7      -0.578100
     22 N2         -40.3120    -2.8360     0.0970 ns         1 5H7      -0.131000
     23 C10        -37.9360    -3.1980    -0.5650 ca         1 5H7       0.313900
     24 N1         -36.6440    -3.4810    -0.2770 nb         1 5H7      -0.642000
     25 C9         -36.3270    -3.7300     1.0110 ca         1 5H7       0.307900
     26 C8         -37.2710    -3.7110     2.0500 ca         1 5H7      -0.137000
     27 C7         -38.6240    -3.4240     1.7660 ca         1 5H7      -0.078300
     28 C5         -39.7090    -3.3950     2.8740 c6         1 5H7      -0.021400
     29 C4         -39.3620    -4.2020     4.1600 c6         1 5H7      -0.067400
     30 N          -40.2250    -4.9730     6.3640 n8         1 5H7      -1.002200
     31 C6         -40.0950    -1.9390     3.2650 c6         1 5H7      -0.070400
     32 C          -41.7210    -0.4730     4.6090 c3         1 5H7      -0.085100
     33 H          -42.1580    -2.3730     3.7480 hc         1 5H7       0.042700
     34 H6         -40.1710    -2.2710     6.0900 hc         1 5H7       0.047200
     35 H7         -41.8560    -2.7820     6.1760 hc         1 5H7       0.047200
     36 H1         -41.4110    -4.7100     4.6760 h1         1 5H7       0.011700
     37 H18        -42.8490    -1.8150    -2.9790 ha         1 5H7       0.157000
     38 H19        -45.2590    -1.2150    -2.5880 ha         1 5H7       0.148000
     39 H20        -45.7850     0.1690     4.5320 ha         1 5H7       0.141500
     40 H21        -45.7210    -1.9660     5.8260 ha         1 5H7       0.127000
     41 H22        -44.9820    -4.0680     4.6970 ha         1 5H7       0.141500
     42 H17        -40.9210    -2.7920     0.9060 hn         1 5H7       0.187000
     43 H16        -38.1370    -2.9970    -1.6140 h4         1 5H7       0.049100
     44 H15        -35.2810    -3.9510     1.2180 h4         1 5H7       0.021100
     45 H14        -36.9290    -3.9170     3.0580 ha         1 5H7       0.125000
     46 H2         -40.6060    -3.8760     2.4600 hc         1 5H7       0.051700
     47 H11        -39.0990    -5.2330     3.8890 hc         1 5H7       0.052200
     48 H10        -38.4860    -3.7650     4.6580 hc         1 5H7       0.052200
     49 H8         -41.0590    -5.0220     6.9580 hn         1 5H7       0.395000
     50 H9         -40.0630    -5.9510     6.0990 hn         1 5H7       0.395000
     51 H12        -39.2280    -1.4350     3.7160 hc         1 5H7       0.049200
     52 H13        -40.3530    -1.3590     2.3690 hc         1 5H7       0.049200
     53 H5         -42.5890    -0.4710     5.2800 hc         1 5H7       0.035033
     54 H4         -40.9100     0.0710     5.1090 hc         1 5H7       0.035033
     55 H3         -41.9980     0.0910     3.7110 hc         1 5H7       0.035033
@<TRIPOS>BOND
     1     1     2 1   
     2     1    31 1   
     3     1    32 1   
     4     1    33 1   
     5     2     3 1   
     6     2    34 1   
     7     2    35 1   
     8     3    29 1   
     9     3    30 1   
    10     3    36 1   
    11     4    22 1   
    12     4    23 ar  
    13     4    27 ar  
    14     5     6 1   
    15     5    21 2   
    16     5    22 1   
    17     6     7 ar  
    18     6    20 ar  
    19     7     8 ar  
    20     7    37 1   
    21     8     9 ar  
    22     8    38 1   
    23     9    10 ar  
    24     9    19 1   
    25    10    11 1   
    26    10    20 ar  
    27    11    12 ar  
    28    11    16 ar  
    29    12    13 ar  
    30    12    18 1   
    31    13    14 ar  
    32    13    39 1   
    33    14    15 ar  
    34    14    40 1   
    35    15    16 ar  
    36    15    41 1   
    37    16    17 1   
    38    22    42 1   
    39    23    24 ar  
    40    23    43 1   
    41    24    25 ar  
    42    25    26 ar  
    43    25    44 1   
    44    26    27 ar  
    45    26    45 1   
    46    27    28 1   
    47    28    29 1   
    48    28    31 1   
    49    28    46 1   
    50    29    47 1   
    51    29    48 1   
    52    30    49 1   
    53    30    50 1   
    54    31    51 1   
    55    31    52 1   
    56    32    53 1   
    57    32    54 1   
    58    32    55 1   
@<TRIPOS>SUBSTRUCTURE
     1 5H7         1 TEMP              0 ****  ****    0 ROOT
