@<TRIPOS>MOLECULE
5H7
   55    58     1     0     0
SMALL
abcg2


@<TRIPOS>ATOM
      1 C1         -41.3030    -1.7310     4.1110 c6         1 5H7      -0.062700
      2 C2         -41.0220    -2.4960     5.4050 c6         1 5H7      -0.073400
      3 C3         -40.6840    -3.9620     5.1500 c6         1 5H7       0.165500
      4 C11        -39.0790    -3.3090     0.4360 ca         1 5H7      -0.070000
      5 C12        -40.9280    -2.4460    -1.0120 c          1 5H7       0.515600
      6 C13        -42.3780    -2.0780    -0.8210 ca         1 5H7       0.274500
      7 C14        -43.1280    -1.5470    -1.8640 ca         1 5H7      -0.067000
      8 C15        -44.4460    -1.1950    -1.6100 ca         1 5H7      -0.122000
      9 C16        -44.9340    -1.3850    -0.3320 ca         1 5H7       0.164000
     10 C17        -44.1320    -1.9190     0.6770 cp         1 5H7       0.383500
     11 C18        -44.5960    -2.1190     2.0670 cp         1 5H7      -0.227500
     12 C19        -45.0400    -1.0680     2.8640 ca         1 5H7       0.223000
     13 C20        -45.3740    -1.2120     4.1960 ca         1 5H7      -0.170500
     14 C21        -45.2670    -2.4720     4.7720 ca         1 5H7      -0.044000
     15 C22        -44.8410    -3.5620     4.0220 ca         1 5H7      -0.170500
     16 C23        -44.5180    -3.3620     2.6940 ca         1 5H7       0.223000
     17 F2         -44.1120    -4.4220     1.9640 f          1 5H7      -0.166000
     18 F1         -45.1080     0.1630     2.3090 f          1 5H7      -0.166000
     19 F          -46.2090    -1.0640    -0.0570 f          1 5H7      -0.155000
     20 N3         -42.8760    -2.2570     0.4020 nb         1 5H7      -0.658000
     21 O          -40.3360    -2.2360    -2.0640 o          1 5H7      -0.578100
     22 N2         -40.4000    -2.9920     0.1090 ns         1 5H7      -0.131000
     23 C10        -38.0750    -3.4270    -0.5270 ca         1 5H7       0.313900
     24 N1         -36.8080    -3.7200    -0.2260 nb         1 5H7      -0.642000
     25 C9         -36.5040    -3.9140     1.0580 ca         1 5H7       0.307900
     26 C8         -37.4400    -3.8300     2.0810 ca         1 5H7      -0.137000
     27 C7         -38.7640    -3.5220     1.7950 ca         1 5H7      -0.078300
     28 C5         -39.8220    -3.3760     2.8640 c6         1 5H7      -0.021400
     29 C4         -39.5080    -4.0860     4.1820 c6         1 5H7      -0.067400
     30 N          -40.3500    -4.6260     6.4180 n8         1 5H7      -1.002200
     31 C6         -40.1320    -1.8890     3.1380 c6         1 5H7      -0.070400
     32 C          -41.6130    -0.2620     4.3760 c3         1 5H7      -0.085100
     33 H          -42.1820    -2.1810     3.6370 hc         1 5H7       0.042700
     34 H6         -40.1790    -2.0280     5.9280 hc         1 5H7       0.047200
     35 H7         -41.8890    -2.4300     6.0700 hc         1 5H7       0.047200
     36 H1         -41.5590    -4.4280     4.6720 h1         1 5H7       0.011700
     37 H18        -42.6890    -1.4130    -2.8410 ha         1 5H7       0.157000
     38 H19        -45.0880    -0.7840    -2.3780 ha         1 5H7       0.148000
     39 H20        -45.6930    -0.3500     4.7650 ha         1 5H7       0.141500
     40 H21        -45.5160    -2.6060     5.8160 ha         1 5H7       0.127000
     41 H22        -44.7550    -4.5510     4.4500 ha         1 5H7       0.141500
     42 H17        -41.0820    -3.0400     0.8570 hn         1 5H7       0.187000
     43 H16        -38.3150    -3.2770    -1.5690 h4         1 5H7       0.049100
     44 H15        -35.4690    -4.1500     1.2830 h4         1 5H7       0.021100
     45 H14        -37.1260    -4.0040     3.1000 ha         1 5H7       0.125000
     46 H2         -40.7420    -3.8400     2.4870 hc         1 5H7       0.051700
     47 H11        -39.2900    -5.1430     3.9990 hc         1 5H7       0.052200
     48 H10        -38.6240    -3.6470     4.6530 hc         1 5H7       0.052200
     49 H8         -41.1440    -4.5690     7.0490 hn         1 5H7       0.395000
     50 H9         -40.1940    -5.6160     6.2530 hn         1 5H7       0.395000
     51 H12        -39.2360    -1.4200     3.5570 hc         1 5H7       0.049200
     52 H13        -40.3560    -1.3660     2.2060 hc         1 5H7       0.049200
     53 H5         -42.4640    -0.1590     5.0530 hc         1 5H7       0.035033
     54 H4         -40.7550     0.2410     4.8320 hc         1 5H7       0.035033
     55 H3         -41.8570     0.2610     3.4480 hc         1 5H7       0.035033
@<TRIPOS>BOND
     1     1     2 1   
     2     1    31 1   
     3     1    32 1   
     4     1    33 1   
     5     2     3 1   
     6     2    34 1   
     7     2    35 1   
     8     3    29 1   
     9     3    30 1   
    10     3    36 1   
    11     4    22 1   
    12     4    23 ar  
    13     4    27 ar  
    14     5     6 1   
    15     5    21 2   
    16     5    22 1   
    17     6     7 ar  
    18     6    20 ar  
    19     7     8 ar  
    20     7    37 1   
    21     8     9 ar  
    22     8    38 1   
    23     9    10 ar  
    24     9    19 1   
    25    10    11 1   
    26    10    20 ar  
    27    11    12 ar  
    28    11    16 ar  
    29    12    13 ar  
    30    12    18 1   
    31    13    14 ar  
    32    13    39 1   
    33    14    15 ar  
    34    14    40 1   
    35    15    16 ar  
    36    15    41 1   
    37    16    17 1   
    38    22    42 1   
    39    23    24 ar  
    40    23    43 1   
    41    24    25 ar  
    42    25    26 ar  
    43    25    44 1   
    44    26    27 ar  
    45    26    45 1   
    46    27    28 1   
    47    28    29 1   
    48    28    31 1   
    49    28    46 1   
    50    29    47 1   
    51    29    48 1   
    52    30    49 1   
    53    30    50 1   
    54    31    51 1   
    55    31    52 1   
    56    32    53 1   
    57    32    54 1   
    58    32    55 1   
@<TRIPOS>SUBSTRUCTURE
     1 5H7         1 TEMP              0 ****  ****    0 ROOT
