@<TRIPOS>MOLECULE
5H8
   64    64     1     0     0
SMALL
abcg2


@<TRIPOS>ATOM
      1 C1           7.6660    -2.6840     2.1860 ca         1 5H8      -0.118000
      2 C2           6.3940    -3.1160     1.8260 ca         1 5H8      -0.123500
      3 C3           5.6960    -2.4580     0.8250 ca         1 5H8      -0.086000
      4 C9           3.5490     0.7000    -1.0300 c          1 5H8       0.632100
      5 C11          1.4140     1.8720    -0.8370 c3         1 5H8      -0.248000
      6 C14         -2.4300     1.7900    -0.6650 c3         1 5H8       0.162500
      7 C15         -3.3990     0.6080    -0.5410 c          1 5H8       0.559100
      8 O17          3.5670     0.6370    -2.2430 o          1 5H8      -0.559000
      9 C20         -3.0770     2.9910    -1.3440 c3         1 5H8      -0.057400
     10 C21         -4.3070     3.5630    -0.6350 c3         1 5H8      -0.064700
     11 C22         -4.0320     3.8970     0.8290 c3         1 5H8      -0.083600
     12 C30         -4.4770    -1.2200     2.3140 c          1 5H8       0.714000
     13 C4           6.2560    -1.3610     0.1730 ca         1 5H8      -0.079300
     14 P12          0.0790     0.6220    -0.5800 p5         1 5H8       1.346300
     15 O19          0.4850    -0.6270    -1.3210 o          1 5H8      -0.816000
     16 O18         -0.2040     0.5840     0.9090 o          1 5H8      -0.816000
     17 N13         -1.2370     1.3660    -1.3750 n7         1 5H8      -0.986500
     18 C23         -4.8070     4.7980    -1.3780 c3         1 5H8      -0.083600
     19 O24         -4.2610     0.3960    -1.3930 o          1 5H8      -0.693100
     20 N16         -3.1920    -0.1630     0.5280 ns         1 5H8      -0.446900
     21 C25         -3.9540    -1.3450     0.8620 c3         1 5H8      -0.019300
     22 C26         -3.1380    -2.6470     0.6250 c3         1 5H8      -0.043000
     23 C29         -2.6390    -2.6710    -0.8230 c3         1 5H8      -0.077433
     24 C28         -4.0350    -3.8650     0.8470 c3         1 5H8      -0.077433
     25 C5           7.5270    -0.9350     0.5410 ca         1 5H8      -0.086000
     26 C6           8.2320    -1.5940     1.5410 ca         1 5H8      -0.123500
     27 O8           4.4580     0.1020    -0.2440 os         1 5H8      -0.470100
     28 N10          2.6690     1.3970    -0.2910 ns         1 5H8      -0.443900
     29 H1           8.2140    -3.1990     2.9650 ha         1 5H8       0.097000
     30 H2           5.9500    -3.9680     2.3230 ha         1 5H8       0.103000
     31 H3           4.7080    -2.8050     0.5430 ha         1 5H8       0.122500
     32 H6           1.5450     2.0860    -1.8970 h1         1 5H8       0.054700
     33 H7           1.1500     2.8150    -0.3540 h1         1 5H8       0.054700
     34 H8          -2.1080     2.0890     0.3330 h1         1 5H8       0.078700
     35 H9          -2.3100     3.7700    -1.4150 hc         1 5H8       0.030700
     36 H10         -3.3470     2.7250    -2.3710 hc         1 5H8       0.030700
     37 H11         -5.1030     2.8120    -0.6670 hc         1 5H8       0.072700
     38 H12         -4.9050     4.3580     1.2940 hc         1 5H8       0.022700
     39 H13         -3.7890     3.0090     1.4150 hc         1 5H8       0.022700
     40 H14         -3.1980     4.5970     0.9230 hc         1 5H8       0.022700
     41 H15         -1.2740    -1.8630     1.4440 hc         1 5H8       0.025811
     42 H16         -2.2230    -2.7950     2.6060 hc         1 5H8       0.025811
     43 H17         -1.3360    -3.6170     1.3260 hc         1 5H8       0.025811
     44 H19         -1.4270     1.0080    -2.3010 hn         1 5H8       0.441000
     45 H20         -4.0570     5.5930    -1.3660 hc         1 5H8       0.022700
     46 H21         -5.0330     4.5730    -2.4220 hc         1 5H8       0.022700
     47 H22         -5.7150     5.1940    -0.9200 hc         1 5H8       0.022700
     48 H23         -2.4120     0.0680     1.1270 hn         1 5H8       0.361500
     49 H24         -4.8070    -1.3750     0.1810 h1         1 5H8       0.056700
     50 H26         -2.1910    -3.6430    -1.0470 hc         1 5H8       0.025811
     51 H27         -3.4570    -2.5140    -1.5290 hc         1 5H8       0.025811
     52 H28         -1.8760    -1.9130    -1.0050 hc         1 5H8       0.025811
     53 H29         -4.4120    -3.9230     1.8670 hc         1 5H8       0.025811
     54 H30         -4.8970    -3.8500     0.1750 hc         1 5H8       0.025811
     55 H31         -3.4780    -4.7820     0.6450 hc         1 5H8       0.025811
     56 H32          7.9740    -0.0830     0.0410 ha         1 5H8       0.122500
     57 H33          9.2230    -1.2550     1.8150 ha         1 5H8       0.103000
     58 H34          2.7040     1.2720     0.7090 hn         1 5H8       0.319500
     59 C7           5.4850    -0.6490    -0.8970 c3         1 5H8       0.230900
     60 O32         -3.7480    -0.6150     3.1240 o          1 5H8      -0.739000
     61 C27         -1.9280    -2.7290     1.5590 c3         1 5H8      -0.077433
     62 H4           6.1390     0.0140    -1.4680 h1         1 5H8       0.048200
     63 H5           5.0420    -1.3660    -1.5910 h1         1 5H8       0.048200
     64 O31         -5.5830    -1.7440     2.5550 o          1 5H8      -0.739000
@<TRIPOS>BOND
     1     1     2 ar  
     2     1    26 ar  
     3     1    29 1   
     4     2     3 ar  
     5     2    30 1   
     6     3    13 ar  
     7     3    31 1   
     8     4     8 2   
     9     4    27 1   
    10     4    28 1   
    11     5    14 1   
    12     5    28 1   
    13     5    32 1   
    14     5    33 1   
    15     6     7 1   
    16     6     9 1   
    17     6    17 1   
    18     6    34 1   
    19     7    19 2   
    20     7    20 1   
    21     9    10 1   
    22     9    35 1   
    23     9    36 1   
    24    10    11 1   
    25    10    18 1   
    26    10    37 1   
    27    11    38 1   
    28    11    39 1   
    29    11    40 1   
    30    12    21 1   
    31    12    60 1   
    32    12    64 1   
    33    13    25 ar  
    34    13    59 1   
    35    14    15 1   
    36    14    16 1   
    37    14    17 1   
    38    17    44 1   
    39    18    45 1   
    40    18    46 1   
    41    18    47 1   
    42    20    21 1   
    43    20    48 1   
    44    21    22 1   
    45    21    49 1   
    46    22    23 1   
    47    22    24 1   
    48    22    61 1   
    49    23    50 1   
    50    23    51 1   
    51    23    52 1   
    52    24    53 1   
    53    24    54 1   
    54    24    55 1   
    55    25    26 ar  
    56    25    56 1   
    57    26    57 1   
    58    27    59 1   
    59    28    58 1   
    60    41    61 1   
    61    42    61 1   
    62    43    61 1   
    63    59    62 1   
    64    59    63 1   
@<TRIPOS>SUBSTRUCTURE
     1 5H8         1 TEMP              0 ****  ****    0 ROOT
