@<TRIPOS>MOLECULE
5H8
   64    64     1     0     0
SMALL
No Charge or Current Charge


@<TRIPOS>ATOM
      1 C1           9.1910    -1.7860     1.7970 ca         1 5H8      -0.118000
      2 C2           8.0080    -2.4410     2.1770 ca         1 5H8      -0.123500
      3 C3           6.8640    -2.3590     1.3630 ca         1 5H8      -0.086000
      4 C9           3.7360    -0.1400    -0.9910 c          1 5H8       0.632100
      5 C11          1.8520     1.5640    -0.9040 c3         1 5H8      -0.248000
      6 C14         -2.1910     1.9530    -0.2460 c3         1 5H8       0.162500
      7 C15         -3.0060     0.6670    -0.6580 c          1 5H8       0.559100
      8 O17          3.2970    -0.7950    -1.9240 o          1 5H8      -0.559000
      9 C20         -2.8670     3.2410    -0.7950 c3         1 5H8      -0.057400
     10 C21         -4.3570     3.4500    -0.3910 c3         1 5H8      -0.064700
     11 C22         -4.5580     3.5430     1.1400 c3         1 5H8      -0.083600
     12 C30         -5.7160    -0.9040     1.2800 c          1 5H8       0.714000
     13 C4           6.8980    -1.6220     0.1620 ca         1 5H8      -0.079300
     14 P12          0.3310     0.8980    -0.0710 p5         1 5H8       1.346300
     15 O19         -0.0390    -0.4530    -0.5630 o          1 5H8      -0.816000
     16 O18          0.3460     1.0400     1.4110 o          1 5H8      -0.816000
     17 N13         -0.7620     1.9570    -0.6790 n7         1 5H8      -0.986500
     18 C23         -4.9450     4.6950    -1.0940 c3         1 5H8      -0.083600
     19 O24         -3.1780     0.3360    -1.8290 o          1 5H8      -0.693100
     20 N16         -3.5640    -0.0360     0.3940 ns         1 5H8      -0.446900
     21 C25         -4.5340    -1.1580     0.2810 c3         1 5H8      -0.019300
     22 C26         -3.8790    -2.5830     0.4210 c3         1 5H8      -0.043000
     23 C29         -2.9820    -2.8730    -0.8120 c3         1 5H8      -0.077433
     24 C28         -4.9800    -3.6800     0.4710 c3         1 5H8      -0.077433
     25 C5           8.0880    -0.9650    -0.2130 ca         1 5H8      -0.086000
     26 C6           9.2310    -1.0480     0.6020 ca         1 5H8      -0.123500
     27 O8           4.8900    -0.3910    -0.3160 os         1 5H8      -0.470100
     28 N10          3.1550     0.9880    -0.4700 ns         1 5H8      -0.443900
     29 H1          10.0760    -1.8500     2.4270 ha         1 5H8       0.097000
     30 H2           7.9760    -3.0110     3.1030 ha         1 5H8       0.103000
     31 H3           5.9510    -2.8670     1.6650 ha         1 5H8       0.122500
     32 H6           1.7240     1.4060    -1.9810 h1         1 5H8       0.054700
     33 H7           1.8630     2.6430    -0.7120 h1         1 5H8       0.054700
     34 H8          -2.2230     2.0150     0.8510 h1         1 5H8       0.078700
     35 H9          -2.2890     4.1120    -0.4610 hc         1 5H8       0.030700
     36 H10         -2.8010     3.2280    -1.8900 hc         1 5H8       0.030700
     37 H11         -4.9340     2.5870    -0.7480 hc         1 5H8       0.072700
     38 H12         -5.6110     3.7340     1.3800 hc         1 5H8       0.022700
     39 H13         -4.2730     2.6090     1.6380 hc         1 5H8       0.022700
     40 H14         -3.9590     4.3580     1.5640 hc         1 5H8       0.022700
     41 H15         -2.1860    -1.9690     1.6960 hc         1 5H8       0.025811
     42 H16         -3.6110    -2.5100     2.6070 hc         1 5H8       0.025811
     43 H17         -2.5730    -3.6920     1.7970 hc         1 5H8       0.025811
     44 H19         -0.7490     1.6300    -1.6430 hn         1 5H8       0.441000
     45 H20         -4.4210     5.6060    -0.7800 hc         1 5H8       0.022700
     46 H21         -4.8560     4.6050    -2.1830 hc         1 5H8       0.022700
     47 H22         -6.0090     4.8110    -0.8530 hc         1 5H8       0.022700
     48 H23         -3.3800     0.3180     1.3270 hn         1 5H8       0.361500
     49 H24         -4.9860    -1.1040    -0.7170 h1         1 5H8       0.056700
     50 H26         -2.5530    -3.8820    -0.7590 hc         1 5H8       0.025811
     51 H27         -3.5580    -2.8000    -1.7430 hc         1 5H8       0.025811
     52 H28         -2.1490    -2.1650    -0.8730 hc         1 5H8       0.025811
     53 H29         -5.5950    -3.5920     1.3740 hc         1 5H8       0.025811
     54 H30         -5.6420    -3.6090    -0.4010 hc         1 5H8       0.025811
     55 H31         -4.5350    -4.6820     0.4740 hc         1 5H8       0.025811
     56 H32          8.1260    -0.3890    -1.1360 ha         1 5H8       0.122500
     57 H33         10.1460    -0.5390     0.3070 ha         1 5H8       0.103000
     58 H34          3.6500     1.4080     0.3100 hn         1 5H8       0.319500
     59 C7           5.6610    -1.5340    -0.7220 c3         1 5H8       0.230900
     60 O32         -5.4550    -0.4810     2.4000 o          1 5H8      -0.739000
     61 C27         -3.0120    -2.6910     1.7070 c3         1 5H8      -0.077433
     62 H4           5.9670    -1.4440    -1.7730 h1         1 5H8       0.048200
     63 H5           5.0720    -2.4560    -0.6200 h1         1 5H8       0.048200
     64 O31         -6.8600    -0.9680     0.8490 o          1 5H8      -0.739000
@<TRIPOS>BOND
     1     1     2 ar  
     2     1    26 ar  
     3     1    29 1   
     4     2     3 ar  
     5     2    30 1   
     6     3    13 ar  
     7     3    31 1   
     8     4     8 2   
     9     4    27 1   
    10     4    28 1   
    11     5    14 1   
    12     5    28 1   
    13     5    32 1   
    14     5    33 1   
    15     6     7 1   
    16     6     9 1   
    17     6    17 1   
    18     6    34 1   
    19     7    19 2   
    20     7    20 1   
    21     9    10 1   
    22     9    35 1   
    23     9    36 1   
    24    10    11 1   
    25    10    18 1   
    26    10    37 1   
    27    11    38 1   
    28    11    39 1   
    29    11    40 1   
    30    12    21 1   
    31    12    60 1   
    32    12    64 1   
    33    13    25 ar  
    34    13    59 1   
    35    14    15 1   
    36    14    16 1   
    37    14    17 1   
    38    17    44 1   
    39    18    45 1   
    40    18    46 1   
    41    18    47 1   
    42    20    21 1   
    43    20    48 1   
    44    21    22 1   
    45    21    49 1   
    46    22    23 1   
    47    22    24 1   
    48    22    61 1   
    49    23    50 1   
    50    23    51 1   
    51    23    52 1   
    52    24    53 1   
    53    24    54 1   
    54    24    55 1   
    55    25    26 ar  
    56    25    56 1   
    57    26    57 1   
    58    27    59 1   
    59    28    58 1   
    60    41    61 1   
    61    42    61 1   
    62    43    61 1   
    63    59    62 1   
    64    59    63 1   
@<TRIPOS>SUBSTRUCTURE
     1 5H8         1 TEMP              0 ****  ****    0 ROOT
