@<TRIPOS>MOLECULE
5H9
   67    67     1     0     0
SMALL
No Charge or Current Charge


@<TRIPOS>ATOM
      1 C1           9.1860    -2.3620     0.8730 ca         1 5H9      -0.118000
      2 C2           7.9940    -3.1010     0.9590 ca         1 5H9      -0.124000
      3 C3           6.8560    -2.6880     0.2440 ca         1 5H9      -0.085000
      4 C9           3.7590     0.3170    -1.0290 c          1 5H9       0.636100
      5 C11          1.8870     1.8590    -0.2680 c3         1 5H9      -0.250000
      6 C14         -2.1620     1.9810     0.4580 c3         1 5H9       0.149500
      7 C15         -2.9410     0.9280    -0.4150 c          1 5H9       0.570100
      8 O17          3.3200     0.0950    -2.1470 o          1 5H9      -0.553000
      9 C20         -2.8490     3.3730     0.4010 c3         1 5H9      -0.055400
     10 C21         -4.3420     3.4110     0.8410 c3         1 5H9      -0.073700
     11 C22         -4.5480     2.9520     2.3050 c3         1 5H9      -0.073600
     12 C30         -2.1740    -2.6440     1.4990 c3         1 5H9      -0.079433
     13 C31         -5.7800    -0.5710    -0.7610 c          1 5H9       0.717000
     14 C4           6.9040    -1.5330    -0.5620 ca         1 5H9      -0.076300
     15 O8           4.9080    -0.1940    -0.5100 os         1 5H9      -0.471100
     16 N10          3.1840     1.1470    -0.1000 ns         1 5H9      -0.443900
     17 P12          0.3600     0.9300     0.2360 p5         1 5H9       1.332300
     18 O19          0.3720     0.4860     1.6570 o          1 5H9      -0.818500
     19 O18         -0.0050    -0.1260    -0.7430 o          1 5H9      -0.818500
     20 N13         -0.7270     2.1510     0.0800 n7         1 5H9      -0.954500
     21 C23         -4.9430     4.8190     0.6230 c3         1 5H9      -0.073600
     22 O24         -3.0150     1.0030    -1.6380 o          1 5H9      -0.647100
     23 N16         -3.5620    -0.0830     0.2940 ns         1 5H9      -0.451900
     24 C25         -4.3980    -1.1480    -0.3110 c3         1 5H9      -0.026300
     25 C26         -4.5970    -2.3600     0.6480 c3         1 5H9      -0.059400
     26 C29         -2.9710    -3.9900    -0.4940 c3         1 5H9      -0.079433
     27 C28         -3.8660    -4.4780     1.8100 c3         1 5H9      -0.079433
     28 C5           8.1010    -0.7940    -0.6430 ca         1 5H9      -0.085000
     29 C6           9.2390    -1.2080     0.0720 ca         1 5H9      -0.124000
     30 H1          10.0660    -2.6820     1.4260 ha         1 5H9       0.096000
     31 H2           7.9520    -3.9930     1.5790 ha         1 5H9       0.102000
     32 H3           5.9360    -3.2640     0.3180 ha         1 5H9       0.121000
     33 H4           5.9840    -0.5840    -2.2640 h1         1 5H9       0.049700
     34 H5           5.0750    -1.9650    -1.6160 h1         1 5H9       0.049700
     35 H6           1.9070     2.7740     0.3360 h1         1 5H9       0.056700
     36 H7           1.7600     2.1420    -1.3200 h1         1 5H9       0.056700
     37 H8          -2.2090     1.6330     1.4990 h1         1 5H9       0.072700
     38 H9          -2.2830     4.0730     1.0290 hc         1 5H9       0.028700
     39 H10         -2.7780     3.7540    -0.6260 hc         1 5H9       0.028700
     40 H11         -4.9100     2.7250     0.1980 hc         1 5H9       0.107700
     41 H12         -5.6040     3.0360     2.5910 hc         1 5H9       0.017533
     42 H13         -4.2550     1.9050     2.4400 hc         1 5H9       0.017533
     43 H14         -3.9580     3.5680     2.9940 hc         1 5H9       0.017533
     44 H15         -2.4630    -2.1120     2.4140 hc         1 5H9       0.026700
     45 H16         -1.3990    -3.3740     1.7630 hc         1 5H9       0.026700
     46 H17         -1.7180    -1.9240     0.8100 hc         1 5H9       0.026700
     47 H18          3.6770     1.2150     0.7840 hn         1 5H9       0.310500
     48 H20         -0.6990     2.2440    -0.9330 hn         1 5H9       0.429000
     49 H21         -4.8490     5.1230    -0.4270 hc         1 5H9       0.017533
     50 H22         -6.0080     4.8310     0.8820 hc         1 5H9       0.017533
     51 H23         -4.4290     5.5640     1.2430 hc         1 5H9       0.017533
     52 H24         -3.4620    -0.0680     1.3010 hn         1 5H9       0.307500
     53 H25         -3.9000    -1.4940    -1.2240 h1         1 5H9       0.064700
     54 H27         -5.4410    -2.9440     0.2590 hc         1 5H9       0.034200
     55 H28         -4.9290    -1.9810     1.6230 hc         1 5H9       0.034200
     56 H29         -2.2090    -4.7630    -0.3330 hc         1 5H9       0.026700
     57 H30         -3.8260    -4.4590    -0.9940 hc         1 5H9       0.026700
     58 H31         -2.5420    -3.2460    -1.1750 hc         1 5H9       0.026700
     59 H32         -4.1690    -4.0710     2.7830 hc         1 5H9       0.026700
     60 H33         -4.7230    -5.0200     1.3900 hc         1 5H9       0.026700
     61 H34         -3.0640    -5.2050     1.9860 hc         1 5H9       0.026700
     62 H35          8.1490     0.1020    -1.2580 ha         1 5H9       0.121000
     63 H36         10.1610    -0.6340     0.0060 ha         1 5H9       0.102000
     64 C7           5.6710    -1.0860    -1.3390 c3         1 5H9       0.230900
     65 O33         -6.4280     0.0990     0.0340 o          1 5H9      -0.742000
     66 C27         -3.3980    -3.3480     0.8540 c3         1 5H9      -0.048000
     67 O32         -6.1540    -0.7890    -1.9060 o          1 5H9      -0.742000
@<TRIPOS>BOND
     1     1     2 ar  
     2     1    29 ar  
     3     1    30 1   
     4     2     3 ar  
     5     2    31 1   
     6     3    14 ar  
     7     3    32 1   
     8     4     8 2   
     9     4    15 1   
    10     4    16 1   
    11     5    16 1   
    12     5    17 1   
    13     5    35 1   
    14     5    36 1   
    15     6     7 1   
    16     6     9 1   
    17     6    20 1   
    18     6    37 1   
    19     7    22 2   
    20     7    23 1   
    21     9    10 1   
    22     9    38 1   
    23     9    39 1   
    24    10    11 1   
    25    10    21 1   
    26    10    40 1   
    27    11    41 1   
    28    11    42 1   
    29    11    43 1   
    30    12    44 1   
    31    12    45 1   
    32    12    46 1   
    33    12    66 1   
    34    13    24 1   
    35    13    65 1   
    36    13    67 1   
    37    14    28 ar  
    38    14    64 1   
    39    15    64 1   
    40    16    47 1   
    41    17    18 1   
    42    17    19 1   
    43    17    20 1   
    44    20    48 1   
    45    21    49 1   
    46    21    50 1   
    47    21    51 1   
    48    23    24 1   
    49    23    52 1   
    50    24    25 1   
    51    24    53 1   
    52    25    54 1   
    53    25    55 1   
    54    25    66 1   
    55    26    56 1   
    56    26    57 1   
    57    26    58 1   
    58    26    66 1   
    59    27    59 1   
    60    27    60 1   
    61    27    61 1   
    62    27    66 1   
    63    28    29 ar  
    64    28    62 1   
    65    29    63 1   
    66    33    64 1   
    67    34    64 1   
@<TRIPOS>SUBSTRUCTURE
     1 5H9         1 TEMP              0 ****  ****    0 ROOT
