@<TRIPOS>MOLECULE
5H9
   67    67     1     0     0
SMALL
bcc


@<TRIPOS>ATOM
      1 C1           7.7270    -3.4590     0.7670 ca         1 5H9      -0.136000
      2 C2           6.5010    -3.8250     0.2270 ca         1 5H9      -0.142000
      3 C3           5.7240    -2.8820    -0.4320 ca         1 5H9      -0.103000
      4 C9           3.6370     1.0100    -0.6490 c          1 5H9       0.752100
      5 C11          1.7740     2.3150     0.2290 c3         1 5H9      -0.092200
      6 C14         -2.2650     2.1300     0.2720 c3         1 5H9       0.149500
      7 C15         -2.9450     0.9430    -0.4070 c          1 5H9       0.637100
      8 O17          3.5120     1.3460    -1.8090 o          1 5H9      -0.602000
      9 C20         -3.0700     3.4060     0.0450 c3         1 5H9      -0.055400
     10 C21         -4.5210     3.3640     0.5270 c3         1 5H9      -0.073700
     11 C22         -4.6280     3.0260     2.0100 c3         1 5H9      -0.073600
     12 C30         -1.2240    -2.4500     1.0770 c3         1 5H9      -0.079433
     13 C31         -5.4130    -0.9510    -0.2960 c          1 5H9       0.927600
     14 C4           6.1630    -1.5680    -0.5620 ca         1 5H9      -0.076300
     15 O8           4.4970     0.0630    -0.2420 os         1 5H9      -0.447900
     16 N10          2.9940     1.5520     0.4010 ns         1 5H9      -0.510900
     17 P12          0.3050     1.1930     0.2800 p5         1 5H9       1.174500
     18 O19          0.0190     0.8320     1.7190 o          1 5H9      -0.818500
     19 O18          0.5510     0.1120    -0.7450 o          1 5H9      -0.818500
     20 N13         -0.9090     2.3000    -0.2200 n7         1 5H9      -0.899300
     21 C23         -5.1970     4.6990     0.2290 c3         1 5H9      -0.073600
     22 O24         -3.2260     0.9750    -1.6030 o          1 5H9      -0.647100
     23 N16         -3.1670    -0.1210     0.3640 ns         1 5H9      -0.518900
     24 C25         -3.9090    -1.2740    -0.0850 c3         1 5H9      -0.026300
     25 C26         -3.7690    -2.4260     0.9160 c3         1 5H9      -0.059400
     26 C29         -2.3930    -4.0080    -0.4830 c3         1 5H9      -0.079433
     27 C28         -2.5880    -4.3240     1.9740 c3         1 5H9      -0.079433
     28 C5           7.3940    -1.2100    -0.0180 ca         1 5H9      -0.103000
     29 C6           8.1730    -2.1490     0.6420 ca         1 5H9      -0.142000
     30 H1           8.3350    -4.1930     1.2800 ha         1 5H9       0.114000
     31 H2           6.1510    -4.8450     0.3170 ha         1 5H9       0.120000
     32 H3           4.7690    -3.1720    -0.8540 ha         1 5H9       0.139000
     33 H4           5.9290     0.2070    -1.7430 h1         1 5H9       0.049700
     34 H5           4.6810    -1.0160    -2.0090 h1         1 5H9       0.049700
     35 H6           1.7130     3.0670     1.0170 h1         1 5H9       0.056700
     36 H7           1.8230     2.8510    -0.7190 h1         1 5H9       0.056700
     37 H8          -2.1880     1.9430     1.3450 h1         1 5H9       0.072700
     38 H9          -2.5460     4.2230     0.5530 hc         1 5H9       0.028700
     39 H10         -3.0550     3.6450    -1.0230 hc         1 5H9       0.028700
     40 H11         -5.0520     2.5810    -0.0250 hc         1 5H9       0.107700
     41 H12         -5.6580     3.1190     2.3570 hc         1 5H9       0.017533
     42 H13         -4.3160     2.0020     2.2140 hc         1 5H9       0.017533
     43 H14         -4.0120     3.6960     2.6150 hc         1 5H9       0.017533
     44 H15         -1.2580    -1.8990     2.0210 hc         1 5H9       0.026700
     45 H16         -0.3490    -3.1040     1.1160 hc         1 5H9       0.026700
     46 H17         -1.0500    -1.7150     0.2920 hc         1 5H9       0.026700
     47 H18          3.1170     1.1020     1.2950 hn         1 5H9       0.310500
     48 H20         -0.9040     2.4640    -1.2210 hn         1 5H9       0.373800
     49 H21         -5.1450     4.9440    -0.8350 hc         1 5H9       0.017533
     50 H22         -6.2500     4.6840     0.5140 hc         1 5H9       0.017533
     51 H23         -4.7160     5.5130     0.7770 hc         1 5H9       0.017533
     52 H24         -2.9060    -0.0640     1.3340 hn         1 5H9       0.307500
     53 H25         -3.5080    -1.5920    -1.0520 h1         1 5H9       0.064700
     54 H27         -4.6130    -3.1030     0.7640 hc         1 5H9       0.034200
     55 H28         -3.8880    -2.0260     1.9310 hc         1 5H9       0.034200
     56 H29         -1.5060    -4.6460    -0.5120 hc         1 5H9       0.026700
     57 H30         -3.2640    -4.6460    -0.6530 hc         1 5H9       0.026700
     58 H31         -2.3190    -3.3150    -1.3230 hc         1 5H9       0.026700
     59 H32         -2.6390    -3.8480     2.9560 hc         1 5H9       0.026700
     60 H33         -3.4770    -4.9470     1.8600 hc         1 5H9       0.026700
     61 H34         -1.7160    -4.9820     1.9700 hc         1 5H9       0.026700
     62 H35          7.7480    -0.1900    -0.1170 ha         1 5H9       0.139000
     63 H36          9.1300    -1.8600     1.0580 ha         1 5H9       0.120000
     64 C7           5.3090    -0.5460    -1.2500 c3         1 5H9       0.207700
     65 O33         -5.8840     0.0360     0.2940 o          1 5H9      -0.847300
     66 C27         -2.4880    -3.2800     0.8590 c3         1 5H9      -0.048000
     67 O32         -6.0270    -1.7550    -1.0280 o          1 5H9      -0.847300
@<TRIPOS>BOND
     1     1     2 ar  
     2     1    29 ar  
     3     1    30 1   
     4     2     3 ar  
     5     2    31 1   
     6     3    14 ar  
     7     3    32 1   
     8     4     8 2   
     9     4    15 1   
    10     4    16 1   
    11     5    16 1   
    12     5    17 1   
    13     5    35 1   
    14     5    36 1   
    15     6     7 1   
    16     6     9 1   
    17     6    20 1   
    18     6    37 1   
    19     7    22 2   
    20     7    23 1   
    21     9    10 1   
    22     9    38 1   
    23     9    39 1   
    24    10    11 1   
    25    10    21 1   
    26    10    40 1   
    27    11    41 1   
    28    11    42 1   
    29    11    43 1   
    30    12    44 1   
    31    12    45 1   
    32    12    46 1   
    33    12    66 1   
    34    13    24 1   
    35    13    65 1   
    36    13    67 1   
    37    14    28 ar  
    38    14    64 1   
    39    15    64 1   
    40    16    47 1   
    41    17    18 1   
    42    17    19 1   
    43    17    20 1   
    44    20    48 1   
    45    21    49 1   
    46    21    50 1   
    47    21    51 1   
    48    23    24 1   
    49    23    52 1   
    50    24    25 1   
    51    24    53 1   
    52    25    54 1   
    53    25    55 1   
    54    25    66 1   
    55    26    56 1   
    56    26    57 1   
    57    26    58 1   
    58    26    66 1   
    59    27    59 1   
    60    27    60 1   
    61    27    61 1   
    62    27    66 1   
    63    28    29 ar  
    64    28    62 1   
    65    29    63 1   
    66    33    64 1   
    67    34    64 1   
@<TRIPOS>SUBSTRUCTURE
     1 5H9         1 TEMP              0 ****  ****    0 ROOT
