@<TRIPOS>MOLECULE
5HA
   79    82     1     0     0
SMALL
abcg2


@<TRIPOS>ATOM
      1 C1          -0.9440     6.2580     4.3140 cx         1 5HA      -0.123400
      2 C2          -1.1970     5.8680     2.8940 cx         1 5HA       0.095500
      3 C3           0.0730     5.4490     3.5640 cx         1 5HA      -0.123400
      4 N1          -2.1780     4.8590     2.6460 n7         1 5HA      -0.844400
      5 C4          -1.9760     4.1710     1.3870 c3         1 5HA       0.135800
      6 C5          -3.0270     3.0850     1.1910 c3         1 5HA       0.149300
      7 C6          -2.7960     2.2880    -0.1030 c3         1 5HA       0.079700
      8 N2          -1.5250     1.5980    -0.0560 ns         1 5HA      -0.498900
      9 C7          -0.4700     1.8890    -0.8360 c          1 5HA       0.621700
     10 O2          -0.3900     2.8910    -1.5310 o          1 5HA      -0.598100
     11 O3          -4.3320     3.6230     1.2290 oh         1 5HA      -0.652000
     12 C8          -3.9170     1.2690    -0.3610 c3         1 5HA      -0.044100
     13 C9           0.6400     0.8860    -0.8120 ca         1 5HA      -0.143600
     14 C10          0.3840    -0.4770    -0.7500 ca         1 5HA      -0.073000
     15 C11          1.4310    -1.3910    -0.8130 ca         1 5HA      -0.136600
     16 C12          2.7330    -0.9310    -0.9500 ca         1 5HA      -0.038000
     17 C13          2.9990     0.4330    -0.9900 ca         1 5HA       0.268000
     18 C14          1.9480     1.3400    -0.9330 ca         1 5HA      -0.060000
     19 C15          1.2100    -2.8730    -0.8160 c          1 5HA       0.614700
     20 N3           4.3240     0.8900    -1.1640 nh         1 5HA      -0.790300
     21 O4           2.0430    -3.6310    -1.2910 o          1 5HA      -0.602100
     22 C16          4.5710     2.0440    -2.0230 c3         1 5HA       0.206100
     23 S1           5.4670     0.5550     0.0070 s6         1 5HA       1.211100
     24 C23          6.5840    -0.5510    -0.8150 c3         1 5HA      -0.351100
     25 O5           6.1910     1.7830     0.3000 o          1 5HA      -0.531500
     26 O6           4.8040    -0.1540     1.0880 o          1 5HA      -0.531500
     27 C24         -3.2610    -0.9270    -1.4030 ca         1 5HA      -0.111500
     28 C25         -2.9310    -1.7100    -2.5010 ca         1 5HA      -0.106000
     29 C26         -2.9630    -1.1680    -3.7770 ca         1 5HA      -0.106000
     30 C27         -3.3320     0.1610    -3.9460 ca         1 5HA      -0.106000
     31 C28         -3.6580     0.9400    -2.8450 ca         1 5HA      -0.111500
     32 C29         -3.6210     0.4090    -1.5570 ca         1 5HA      -0.080300
     33 N4           0.0580    -3.3010    -0.2730 ns         1 5HA      -0.500900
     34 C17         -0.2840    -4.7180    -0.1750 c3         1 5HA       0.165000
     35 C18         -0.7130    -5.2900    -1.5240 c3         1 5HA      -0.099100
     36 C30         -1.3540    -4.8750     0.8810 ca         1 5HA      -0.114300
     37 C31         -1.0430    -5.4390     2.1140 ca         1 5HA      -0.098500
     38 C32         -2.0150    -5.5780     3.0970 ca         1 5HA      -0.112000
     39 C33         -3.3120    -5.1450     2.8590 ca         1 5HA      -0.100000
     40 C34         -3.6310    -4.5760     1.6330 ca         1 5HA      -0.112000
     41 C35         -2.6600    -4.4460     0.6510 ca         1 5HA      -0.098500
     42 H11         -0.7220     7.2960     4.5300 hc         1 5HA       0.074950
     43 H12A        -1.5230     5.7540     5.0770 hc         1 5HA       0.074950
     44 H2          -1.1020     6.6630     2.1520 h1         1 5HA       0.054700
     45 H31A         0.1720     4.4030     3.8250 hc         1 5HA       0.074950
     46 H32A         0.9970     5.9270     3.2640 hc         1 5HA       0.074950
     47 HN1         -3.1000     5.2770     2.6590 hn         1 5HA       0.424000
     48 H41         -0.9850     3.7130     1.4050 h1         1 5HA       0.043200
     49 H42         -1.9900     4.8480     0.5150 h1         1 5HA       0.043200
     50 H5          -2.9710     2.3920     2.0380 h1         1 5HA       0.085700
     51 H6          -2.7490     2.9850    -0.9440 h1         1 5HA       0.080700
     52 HN2         -1.4610     0.8050     0.5630 hn         1 5HA       0.316500
     53 HO3         -4.4320     4.2420     0.4960 ho         1 5HA       0.438000
     54 H81         -4.0400     0.6380     0.5250 hc         1 5HA       0.061200
     55 H82         -4.8570     1.8040    -0.4990 hc         1 5HA       0.061200
     56 H10         -0.6430    -0.8230    -0.7300 ha         1 5HA       0.124000
     57 H12          3.5380    -1.6470    -1.0490 ha         1 5HA       0.140000
     58 H14          2.1390     2.4040    -0.9860 ha         1 5HA       0.140000
     59 H161         3.9380     1.9510    -2.9020 h1         1 5HA       0.052367
     60 H162         4.3630     2.9960    -1.5340 h1         1 5HA       0.052367
     61 H163         5.6040     2.0470    -2.3650 h1         1 5HA       0.052367
     62 H231         6.9650    -0.0740    -1.7160 h1         1 5HA       0.105700
     63 H232         7.4070    -0.7650    -0.1360 h1         1 5HA       0.105700
     64 H233         6.0600    -1.4680    -1.0710 h1         1 5HA       0.105700
     65 H25         -2.6510    -2.7470    -2.3630 ha         1 5HA       0.114500
     66 H26         -2.7080    -1.7760    -4.6350 ha         1 5HA       0.116000
     67 H27         -3.3680     0.5910    -4.9390 ha         1 5HA       0.114500
     68 H28         -3.9410     1.9760    -2.9910 ha         1 5HA       0.108500
     69 HN4         -0.4870    -2.6590     0.2790 hn         1 5HA       0.317500
     70 H17          0.6050    -5.2590     0.1600 h1         1 5HA       0.068700
     71 H181         0.0850    -5.1930    -2.2580 hc         1 5HA       0.046700
     72 H182        -0.9560    -6.3470    -1.4210 hc         1 5HA       0.046700
     73 H183        -1.5930    -4.7780    -1.9110 hc         1 5HA       0.046700
     74 H31         -0.0310    -5.7740     2.3080 ha         1 5HA       0.116000
     75 H32         -1.7560    -6.0250     4.0480 ha         1 5HA       0.116000
     76 H33         -4.0710    -5.2520     3.6230 ha         1 5HA       0.116000
     77 H34         -4.6410    -4.2380     1.4360 ha         1 5HA       0.116000
     78 H35         -2.9370    -4.0220    -0.3070 ha         1 5HA       0.116000
     79 H24         -3.2410    -1.3550    -0.4060 ha         1 5HA       0.108500
@<TRIPOS>BOND
     1     1     2 1   
     2     1     3 1   
     3     1    42 1   
     4     1    43 1   
     5     2     3 1   
     6     2     4 1   
     7     2    44 1   
     8     3    45 1   
     9     3    46 1   
    10     4     5 1   
    11     4    47 1   
    12     5     6 1   
    13     5    48 1   
    14     5    49 1   
    15     6     7 1   
    16     6    11 1   
    17     6    50 1   
    18     7     8 1   
    19     7    12 1   
    20     7    51 1   
    21     8     9 1   
    22     8    52 1   
    23     9    10 2   
    24     9    13 1   
    25    11    53 1   
    26    12    32 1   
    27    12    54 1   
    28    12    55 1   
    29    13    14 ar  
    30    13    18 ar  
    31    14    15 ar  
    32    14    56 1   
    33    15    16 ar  
    34    15    19 1   
    35    16    17 ar  
    36    16    57 1   
    37    17    18 ar  
    38    17    20 1   
    39    18    58 1   
    40    19    21 2   
    41    19    33 1   
    42    20    22 1   
    43    20    23 1   
    44    22    59 1   
    45    22    60 1   
    46    22    61 1   
    47    23    24 1   
    48    23    25 2   
    49    23    26 2   
    50    24    62 1   
    51    24    63 1   
    52    24    64 1   
    53    27    28 ar  
    54    27    32 ar  
    55    27    79 1   
    56    28    29 ar  
    57    28    65 1   
    58    29    30 ar  
    59    29    66 1   
    60    30    31 ar  
    61    30    67 1   
    62    31    32 ar  
    63    31    68 1   
    64    33    34 1   
    65    33    69 1   
    66    34    35 1   
    67    34    36 1   
    68    34    70 1   
    69    35    71 1   
    70    35    72 1   
    71    35    73 1   
    72    36    37 ar  
    73    36    41 ar  
    74    37    38 ar  
    75    37    74 1   
    76    38    39 ar  
    77    38    75 1   
    78    39    40 ar  
    79    39    76 1   
    80    40    41 ar  
    81    40    77 1   
    82    41    78 1   
@<TRIPOS>SUBSTRUCTURE
     1 5HA         1 TEMP              0 ****  ****    0 ROOT
