@<TRIPOS>MOLECULE
5HA
   79    82     1     0     0
SMALL
No Charge or Current Charge


@<TRIPOS>ATOM
      1 C1          -1.5000     5.9160     4.8600 cx         1 5HA      -0.123400
      2 C2          -1.5430     5.6400     3.3780 cx         1 5HA       0.095500
      3 C3          -0.3550     5.1930     4.1930 cx         1 5HA      -0.123400
      4 N1          -2.4600     4.6170     2.9260 n7         1 5HA      -0.844400
      5 C4          -2.0830     3.9530     1.6540 c3         1 5HA       0.135800
      6 C5          -3.1900     2.9660     1.1740 c3         1 5HA       0.149300
      7 C6          -2.8290     2.2350    -0.1590 c3         1 5HA       0.079700
      8 N2          -1.5400     1.5310    -0.0800 ns         1 5HA      -0.498900
      9 C7          -0.3530     1.9810    -0.6190 c          1 5HA       0.621700
     10 O2          -0.2390     3.1220    -1.0460 o          1 5HA      -0.598100
     11 O3          -4.4430     3.6730     1.0300 oh         1 5HA      -0.652000
     12 C8          -3.9230     1.2380    -0.6280 c3         1 5HA      -0.044100
     13 C9           0.7820     0.9800    -0.6750 ca         1 5HA      -0.143600
     14 C10          0.5780    -0.3990    -0.4420 ca         1 5HA      -0.073000
     15 C11          1.6550    -1.3120    -0.5130 ca         1 5HA      -0.136600
     16 C12          2.9430    -0.8210    -0.8260 ca         1 5HA      -0.038000
     17 C13          3.1780     0.5490    -1.0790 ca         1 5HA       0.268000
     18 C14          2.0810     1.4300    -0.9970 ca         1 5HA      -0.060000
     19 C15          1.4720    -2.7990    -0.2730 c          1 5HA       0.614700
     20 N3           4.4600     1.0790    -1.4080 nh         1 5HA      -0.790300
     21 O4           2.4030    -3.5890    -0.3520 o          1 5HA      -0.602100
     22 C16          4.5980     2.1880    -2.3780 c3         1 5HA       0.206100
     23 S1           5.9450     0.3630    -0.8650 s6         1 5HA       1.211100
     24 C23          6.3100    -0.9050    -2.0700 c3         1 5HA      -0.351100
     25 O5           6.9770     1.4010    -0.9590 o          1 5HA      -0.531500
     26 O6           5.6680    -0.2770     0.4240 o          1 5HA      -0.531500
     27 C24         -3.2570    -1.0050    -1.6460 ca         1 5HA      -0.111500
     28 C25         -2.8050    -1.7840    -2.7260 ca         1 5HA      -0.106000
     29 C26         -2.5700    -1.1860    -3.9750 ca         1 5HA      -0.106000
     30 C27         -2.7880     0.1910    -4.1450 ca         1 5HA      -0.106000
     31 C28         -3.2370     0.9710    -3.0650 ca         1 5HA      -0.111500
     32 C29         -3.4730     0.3790    -1.8090 ca         1 5HA      -0.080300
     33 N4           0.2010    -3.2240     0.0460 ns         1 5HA      -0.500900
     34 C17         -0.1800    -4.6060     0.3180 c3         1 5HA       0.165000
     35 C18         -0.3190    -5.4180    -0.9880 c3         1 5HA      -0.099100
     36 C30         -1.4490    -4.6270     1.1690 ca         1 5HA      -0.114300
     37 C31         -1.3690    -4.9640     2.5360 ca         1 5HA      -0.098500
     38 C32         -2.5250    -4.9710     3.3370 ca         1 5HA      -0.112000
     39 C33         -3.7700    -4.6360     2.7800 ca         1 5HA      -0.100000
     40 C34         -3.8580    -4.2930     1.4220 ca         1 5HA      -0.112000
     41 C35         -2.7040    -4.2870     0.6200 ca         1 5HA      -0.098500
     42 H11         -1.3370     6.9430     5.1760 hc         1 5HA       0.074950
     43 H12A        -2.1540     5.3380     5.5090 hc         1 5HA       0.074950
     44 H2          -1.4000     6.4900     2.7080 h1         1 5HA       0.054700
     45 H31A        -0.2410     4.1310     4.3920 hc         1 5HA       0.074950
     46 H32A         0.5780     5.7350     4.0600 hc         1 5HA       0.074950
     47 HN1         -3.3960     5.0230     2.7960 hn         1 5HA       0.424000
     48 H41         -1.1410     3.4040     1.7890 h1         1 5HA       0.043200
     49 H42         -1.9150     4.7010     0.8660 h1         1 5HA       0.043200
     50 H5          -3.2920     2.1950     1.9510 h1         1 5HA       0.085700
     51 H6          -2.7410     3.0020    -0.9410 h1         1 5HA       0.080700
     52 HN2         -1.5420     0.5840     0.2730 hn         1 5HA       0.316500
     53 HO3         -4.2970     4.3980     0.3850 ho         1 5HA       0.438000
     54 H81         -4.2040     0.5970     0.2170 hc         1 5HA       0.061200
     55 H82         -4.8280     1.7920    -0.9000 hc         1 5HA       0.061200
     56 H10         -0.4220    -0.7620    -0.2250 ha         1 5HA       0.124000
     57 H12          3.7600    -1.5290    -0.8770 ha         1 5HA       0.140000
     58 H14          2.2420     2.4900    -1.1660 ha         1 5HA       0.140000
     59 H161         3.7150     2.2520    -3.0270 h1         1 5HA       0.052367
     60 H162         4.7150     3.1460    -1.8530 h1         1 5HA       0.052367
     61 H163         5.4660     2.0390    -3.0350 h1         1 5HA       0.052367
     62 H231         6.4100    -0.4100    -3.0400 h1         1 5HA       0.105700
     63 H232         7.2530    -1.3730    -1.7700 h1         1 5HA       0.105700
     64 H233         5.4980    -1.6340    -2.0830 h1         1 5HA       0.105700
     65 H25         -2.6370    -2.8510    -2.5970 ha         1 5HA       0.114500
     66 H26         -2.2210    -1.7890    -4.8100 ha         1 5HA       0.116000
     67 H27         -2.6050     0.6550    -5.1120 ha         1 5HA       0.114500
     68 H28         -3.3960     2.0380    -3.2040 ha         1 5HA       0.108500
     69 HN4         -0.5180    -2.5190     0.1120 hn         1 5HA       0.317500
     70 H17          0.6270    -5.0670     0.9040 h1         1 5HA       0.068700
     71 H181         0.6430    -5.4760    -1.5100 hc         1 5HA       0.046700
     72 H182        -0.6460    -6.4410    -0.7670 hc         1 5HA       0.046700
     73 H183        -1.0460    -4.9600    -1.6680 hc         1 5HA       0.046700
     74 H31         -0.4110    -5.2200     2.9820 ha         1 5HA       0.116000
     75 H32         -2.4540    -5.2340     4.3900 ha         1 5HA       0.116000
     76 H33         -4.6640    -4.6410     3.4010 ha         1 5HA       0.116000
     77 H34         -4.8210    -4.0300     0.9890 ha         1 5HA       0.116000
     78 H35         -2.7910    -4.0140    -0.4280 ha         1 5HA       0.116000
     79 H24         -3.4330    -1.4770    -0.6820 ha         1 5HA       0.108500
@<TRIPOS>BOND
     1     1     2 1   
     2     1     3 1   
     3     1    42 1   
     4     1    43 1   
     5     2     3 1   
     6     2     4 1   
     7     2    44 1   
     8     3    45 1   
     9     3    46 1   
    10     4     5 1   
    11     4    47 1   
    12     5     6 1   
    13     5    48 1   
    14     5    49 1   
    15     6     7 1   
    16     6    11 1   
    17     6    50 1   
    18     7     8 1   
    19     7    12 1   
    20     7    51 1   
    21     8     9 1   
    22     8    52 1   
    23     9    10 2   
    24     9    13 1   
    25    11    53 1   
    26    12    32 1   
    27    12    54 1   
    28    12    55 1   
    29    13    14 ar  
    30    13    18 ar  
    31    14    15 ar  
    32    14    56 1   
    33    15    16 ar  
    34    15    19 1   
    35    16    17 ar  
    36    16    57 1   
    37    17    18 ar  
    38    17    20 1   
    39    18    58 1   
    40    19    21 2   
    41    19    33 1   
    42    20    22 1   
    43    20    23 1   
    44    22    59 1   
    45    22    60 1   
    46    22    61 1   
    47    23    24 1   
    48    23    25 2   
    49    23    26 2   
    50    24    62 1   
    51    24    63 1   
    52    24    64 1   
    53    27    28 ar  
    54    27    32 ar  
    55    27    79 1   
    56    28    29 ar  
    57    28    65 1   
    58    29    30 ar  
    59    29    66 1   
    60    30    31 ar  
    61    30    67 1   
    62    31    32 ar  
    63    31    68 1   
    64    33    34 1   
    65    33    69 1   
    66    34    35 1   
    67    34    36 1   
    68    34    70 1   
    69    35    71 1   
    70    35    72 1   
    71    35    73 1   
    72    36    37 ar  
    73    36    41 ar  
    74    37    38 ar  
    75    37    74 1   
    76    38    39 ar  
    77    38    75 1   
    78    39    40 ar  
    79    39    76 1   
    80    40    41 ar  
    81    40    77 1   
    82    41    78 1   
@<TRIPOS>SUBSTRUCTURE
     1 5HA         1 TEMP              0 ****  ****    0 ROOT
