@<TRIPOS>MOLECULE
5HB
   57    60     1     0     0
SMALL
No Charge or Current Charge


@<TRIPOS>ATOM
      1 C10          3.8390    -1.2360     1.0890 c6         1 5HB       0.165800
      2 C13          6.1050     0.4520     0.0050 ca         1 5HB      -0.086300
      3 C15          6.5970     2.6950     0.8350 ca         1 5HB      -0.114000
      4 C17          8.0270     0.8300     1.4630 ca         1 5HB      -0.114000
      5 C24         -3.9270     0.8680    -1.7250 ca         1 5HB      -0.039000
      6 C26         -5.7700     0.9830    -0.1320 ca         1 5HB       0.002000
      7 C28         -7.6110     1.0990     1.4620 ca         1 5HB      -0.088000
      8 N05         -0.5700     0.0960    -0.4070 n3         1 5HB      -0.737500
      9 C06          0.8520    -0.0240    -0.8240 c3         1 5HB       0.218800
     10 C07          1.5030    -1.4420    -0.7210 c6         1 5HB      -0.062700
     11 C08          1.4460    -2.0440     0.7120 c6         1 5HB      -0.069400
     12 C09          2.4040    -1.2960     1.6690 c6         1 5HB      -0.075400
     13 N11          3.8580    -0.6470    -0.2820 n3         1 5HB      -0.732600
     14 C12          5.2310    -0.4890    -0.8210 c3         1 5HB       0.217100
     15 C14          5.7960     1.8250     0.0760 ca         1 5HB      -0.099500
     16 C16          7.7130     2.1980     1.5290 ca         1 5HB      -0.110000
     17 C18          7.2250    -0.0410     0.7040 ca         1 5HB      -0.099500
     18 C19          2.9750    -1.4070    -1.2110 c6         1 5HB       0.170800
     19 S20         -1.6770    -0.7680    -1.3860 sy         1 5HB       1.162600
     20 O21         -1.3960    -0.4020    -2.7790 o          1 5HB      -0.539000
     21 O22         -1.6430    -2.1580    -0.9180 o          1 5HB      -0.539000
     22 C23         -3.2780    -0.0840    -0.9100 ca         1 5HB      -0.298500
     23 C25         -5.1680     1.3970    -1.3350 ca         1 5HB      -0.111000
     24 C27         -7.0140     1.5140     0.2590 ca         1 5HB      -0.111000
     25 C29         -6.9670     0.1510     2.2760 ca         1 5HB      -0.113000
     26 C30         -5.7250    -0.3820     1.8900 ca         1 5HB      -0.085000
     27 C31         -5.1230     0.0300     0.6860 ca         1 5HB      -0.066000
     28 C32         -3.8790    -0.5010     0.2950 ca         1 5HB       0.017000
     29 H1           4.4620    -0.6450     1.7740 h1         1 5HB       0.034700
     30 H2           4.2580    -2.2530     1.0680 h1         1 5HB       0.034700
     31 H3           6.3520     3.7540     0.8860 ha         1 5HB       0.111000
     32 H4           8.8900     0.4440     2.0010 ha         1 5HB       0.111000
     33 H6          -8.5720     1.5110     1.7630 ha         1 5HB       0.116000
     34 H7          -1.8990     1.5680     0.4090 h1         1 5HB       0.051367
     35 H8          -0.1950     1.9990     0.4780 h1         1 5HB       0.051367
     36 H9          -1.0510     2.0680    -1.0770 h1         1 5HB       0.051367
     37 H10          0.9680     0.3300    -1.8570 h1         1 5HB       0.054700
     38 H11          1.4630     0.6490    -0.2080 h1         1 5HB       0.054700
     39 H12          0.9520    -2.1010    -1.4040 hc         1 5HB       0.075700
     40 H13          0.4210    -2.0160     1.1070 hc         1 5HB       0.047200
     41 H14          1.7300    -3.1040     0.6720 hc         1 5HB       0.047200
     42 H15          2.4220    -1.7970     2.6460 hc         1 5HB       0.042700
     43 H16          2.0380    -0.2770     1.8520 hc         1 5HB       0.042700
     44 H18          5.1820    -0.0870    -1.8420 h1         1 5HB       0.038200
     45 H19          5.7200    -1.4710    -0.8920 h1         1 5HB       0.038200
     46 H20          4.9300     2.2130    -0.4560 ha         1 5HB       0.116000
     47 H21          8.3330     2.8720     2.1170 ha         1 5HB       0.111000
     48 H22          7.4750    -1.0990     0.6610 ha         1 5HB       0.116000
     49 H23          3.3410    -2.4400    -1.3150 h1         1 5HB       0.035700
     50 H24          3.0030    -0.9590    -2.2160 h1         1 5HB       0.035700
     51 H25         -5.6610     2.1310    -1.9680 ha         1 5HB       0.118000
     52 H26         -7.5170     2.2480    -0.3660 ha         1 5HB       0.118000
     53 H27         -7.4300    -0.1690     3.2070 ha         1 5HB       0.117000
     54 H28         -5.2340    -1.1150     2.5270 ha         1 5HB       0.118000
     55 H29         -3.3790    -1.2300     0.9300 ha         1 5HB       0.135000
     56 H5          -3.4740     1.2030    -2.6570 ha         1 5HB       0.134000
     57 C04         -0.9530     1.5010    -0.1410 c3         1 5HB       0.182100
@<TRIPOS>BOND
     1     1    12 1   
     2     1    13 1   
     3     1    29 1   
     4     1    30 1   
     5     2    14 1   
     6     2    15 ar  
     7     2    17 ar  
     8     3    15 ar  
     9     3    16 ar  
    10     3    31 1   
    11     4    16 ar  
    12     4    17 ar  
    13     4    32 1   
    14     5    22 ar  
    15     5    23 ar  
    16     5    56 1   
    17     6    23 ar  
    18     6    24 ar  
    19     6    27 ar  
    20     7    24 ar  
    21     7    25 ar  
    22     7    33 1   
    23     8     9 1   
    24     8    19 1   
    25     8    57 1   
    26     9    10 1   
    27     9    37 1   
    28     9    38 1   
    29    10    11 1   
    30    10    18 1   
    31    10    39 1   
    32    11    12 1   
    33    11    40 1   
    34    11    41 1   
    35    12    42 1   
    36    12    43 1   
    37    13    14 1   
    38    13    18 1   
    39    14    44 1   
    40    14    45 1   
    41    15    46 1   
    42    16    47 1   
    43    17    48 1   
    44    18    49 1   
    45    18    50 1   
    46    19    20 2   
    47    19    21 2   
    48    19    22 1   
    49    22    28 ar  
    50    23    51 1   
    51    24    52 1   
    52    25    26 ar  
    53    25    53 1   
    54    26    27 ar  
    55    26    54 1   
    56    27    28 ar  
    57    28    55 1   
    58    34    57 1   
    59    35    57 1   
    60    36    57 1   
@<TRIPOS>SUBSTRUCTURE
     1 5HB         1 TEMP              0 ****  ****    0 ROOT
