@<TRIPOS>MOLECULE
5HB
   57    60     1     0     0
SMALL
abcg2


@<TRIPOS>ATOM
      1 C10          4.0440    -1.3990     0.6680 c6         1 5HB       0.165800
      2 C13          4.7650     1.3460    -0.3660 ca         1 5HB      -0.086300
      3 C15          4.3010     3.1890     1.1260 ca         1 5HB      -0.114000
      4 C17          6.5080     2.9160     0.2240 ca         1 5HB      -0.114000
      5 C24         -2.5390     0.0790    -1.5200 ca         1 5HB      -0.039000
      6 C26         -4.1160     1.7350    -0.7260 ca         1 5HB       0.002000
      7 C28         -5.6990     3.3800     0.0620 ca         1 5HB      -0.088000
      8 N05         -0.6370    -1.8990     0.6730 n3         1 5HB      -0.737500
      9 C06          0.4810    -1.2870    -0.0560 c3         1 5HB       0.218800
     10 C07          1.5390    -2.3040    -0.4790 c6         1 5HB      -0.062700
     11 C08          2.1540    -3.0520     0.7020 c6         1 5HB      -0.069400
     12 C09          3.0410    -2.1380     1.5410 c6         1 5HB      -0.075400
     13 N11          3.3790    -0.6840    -0.4060 n3         1 5HB      -0.732600
     14 C12          4.2940     0.1490    -1.1530 c3         1 5HB       0.217100
     15 C14          3.8790     2.0600     0.4380 ca         1 5HB      -0.099500
     16 C16          5.6180     3.6230     1.0200 ca         1 5HB      -0.110000
     17 C18          6.0820     1.7830    -0.4600 ca         1 5HB      -0.099500
     18 C19          2.6400    -1.5960    -1.2610 c6         1 5HB       0.170800
     19 S20         -1.9950    -2.2640    -0.1780 sy         1 5HB       1.162600
     20 O21         -1.5700    -2.7360    -1.4860 o          1 5HB      -0.539000
     21 O22         -2.8200    -3.1190     0.6600 o          1 5HB      -0.539000
     22 C23         -2.8610    -0.7340    -0.4110 ca         1 5HB      -0.298500
     23 C25         -3.1560     1.2890    -1.6640 ca         1 5HB      -0.111000
     24 C27         -4.7670     2.9830    -0.8580 ca         1 5HB      -0.111000
     25 C29         -6.0260     2.5500     1.1560 ca         1 5HB      -0.113000
     26 C30         -5.4120     1.3370     1.3090 ca         1 5HB      -0.085000
     27 C31         -4.4420     0.9030     0.3760 ca         1 5HB      -0.066000
     28 C32         -3.7920    -0.3440     0.5140 ca         1 5HB       0.017000
     29 H1           4.6060    -0.6870     1.2760 h1         1 5HB       0.034700
     30 H2           4.7790    -2.1190     0.2620 h1         1 5HB       0.034700
     31 H3           3.6020     3.7310     1.7500 ha         1 5HB       0.111000
     32 H4           7.5380     3.2400     0.1400 ha         1 5HB       0.111000
     33 H6          -6.1910     4.3380    -0.0450 ha         1 5HB       0.116000
     34 H7          -1.5560    -2.0890     2.5580 h1         1 5HB       0.051367
     35 H8           0.1200    -1.5800     2.5800 h1         1 5HB       0.051367
     36 H9          -1.1330    -0.4180     2.1250 h1         1 5HB       0.051367
     37 H10          0.1350    -0.7430    -0.9390 h1         1 5HB       0.054700
     38 H11          0.9180    -0.5300     0.5940 h1         1 5HB       0.054700
     39 H12          1.0630    -3.0240    -1.1490 hc         1 5HB       0.075700
     40 H13          1.3750    -3.5140     1.3140 hc         1 5HB       0.047200
     41 H14          2.7610    -3.8750     0.3100 hc         1 5HB       0.047200
     42 H15          3.5780    -2.7210     2.2930 hc         1 5HB       0.042700
     43 H16          2.4370    -1.4100     2.0890 hc         1 5HB       0.042700
     44 H18          3.7720     0.5040    -2.0480 h1         1 5HB       0.038200
     45 H19          5.1700    -0.4140    -1.5190 h1         1 5HB       0.038200
     46 H20          2.8560     1.7190     0.5320 ha         1 5HB       0.116000
     47 H21          5.9470     4.5040     1.5560 ha         1 5HB       0.111000
     48 H22          6.7850     1.2320    -1.0740 ha         1 5HB       0.116000
     49 H23          3.3010    -2.3530    -1.7200 h1         1 5HB       0.035700
     50 H24          2.2010    -1.0260    -2.0850 h1         1 5HB       0.035700
     51 H25         -2.9160     1.9180    -2.5120 ha         1 5HB       0.118000
     52 H26         -4.5170     3.6220    -1.6960 ha         1 5HB       0.118000
     53 H27         -6.7650     2.8780     1.8740 ha         1 5HB       0.117000
     54 H28         -5.6620     0.6950     2.1450 ha         1 5HB       0.118000
     55 H29         -4.0520    -0.9770     1.3530 ha         1 5HB       0.135000
     56 H5          -1.8250    -0.2540    -2.2610 ha         1 5HB       0.134000
     57 C04         -0.8240    -1.4650     2.0520 c3         1 5HB       0.182100
@<TRIPOS>BOND
     1     1    12 1   
     2     1    13 1   
     3     1    29 1   
     4     1    30 1   
     5     2    14 1   
     6     2    15 ar  
     7     2    17 ar  
     8     3    15 ar  
     9     3    16 ar  
    10     3    31 1   
    11     4    16 ar  
    12     4    17 ar  
    13     4    32 1   
    14     5    22 ar  
    15     5    23 ar  
    16     5    56 1   
    17     6    23 ar  
    18     6    24 ar  
    19     6    27 ar  
    20     7    24 ar  
    21     7    25 ar  
    22     7    33 1   
    23     8     9 1   
    24     8    19 1   
    25     8    57 1   
    26     9    10 1   
    27     9    37 1   
    28     9    38 1   
    29    10    11 1   
    30    10    18 1   
    31    10    39 1   
    32    11    12 1   
    33    11    40 1   
    34    11    41 1   
    35    12    42 1   
    36    12    43 1   
    37    13    14 1   
    38    13    18 1   
    39    14    44 1   
    40    14    45 1   
    41    15    46 1   
    42    16    47 1   
    43    17    48 1   
    44    18    49 1   
    45    18    50 1   
    46    19    20 2   
    47    19    21 2   
    48    19    22 1   
    49    22    28 ar  
    50    23    51 1   
    51    24    52 1   
    52    25    26 ar  
    53    25    53 1   
    54    26    27 ar  
    55    26    54 1   
    56    27    28 ar  
    57    28    55 1   
    58    34    57 1   
    59    35    57 1   
    60    36    57 1   
@<TRIPOS>SUBSTRUCTURE
     1 5HB         1 TEMP              0 ****  ****    0 ROOT
