@<TRIPOS>MOLECULE
5HD
   38    37     1     0     0
SMALL
No Charge or Current Charge


@<TRIPOS>ATOM
      1 C1          -2.1430    -0.6730     0.1620 c3         1 5HD      -0.076400
      2 C2          -3.6480    -0.7200    -0.1840 c3         1 5HD      -0.082900
      3 C3          -4.3290    -2.0270     0.2700 c3         1 5HD       0.163600
      4 O14          5.3530    -2.6920    -0.0170 oh         1 5HD      -0.662500
      5 C13          4.6720    -1.4860     0.3430 c3         1 5HD       0.163600
      6 C12          3.2130    -1.5440    -0.1510 c3         1 5HD      -0.082900
      7 C11          2.4070    -0.2730     0.2010 c3         1 5HD      -0.076400
      8 C10          0.9430    -0.3280    -0.3040 c3         1 5HD      -0.072900
      9 C6           0.0170     0.8350     0.1750 c3         1 5HD      -0.052700
     10 C7           0.5740     2.2320    -0.2470 c3         1 5HD      -0.081400
     11 C8          -0.2280     3.4480     0.2700 c3         1 5HD       0.162600
     12 O9           0.4750     4.6560    -0.0400 oh         1 5HD      -0.664000
     13 C5          -1.4570     0.6360    -0.3040 c3         1 5HD      -0.072900
     14 O4          -5.7150    -1.9980    -0.0830 oh         1 5HD      -0.662500
     15 H1          -2.0190    -0.7810     1.2470 hc         1 5HD       0.039450
     16 H1A         -1.6560    -1.5360    -0.3080 hc         1 5HD       0.039450
     17 H2          -4.1550     0.1300     0.2880 hc         1 5HD       0.051700
     18 H2A         -3.7720    -0.6090    -1.2680 hc         1 5HD       0.051700
     19 H3          -3.8320    -2.8810    -0.2100 h1         1 5HD       0.015450
     20 H3A         -4.2160    -2.1360     1.3570 h1         1 5HD       0.015450
     21 HO14         6.2740    -2.6090     0.3160 ho         1 5HD       0.442000
     22 H13          4.6820    -1.3550     1.4330 h1         1 5HD       0.015450
     23 H13A         5.1730    -0.6180    -0.1070 h1         1 5HD       0.015450
     24 H12          3.2070    -1.6850    -1.2390 hc         1 5HD       0.051700
     25 H12A         2.7200    -2.4190     0.2910 hc         1 5HD       0.051700
     26 H11          2.4090    -0.1350     1.2890 hc         1 5HD       0.039450
     27 H11A         2.9200     0.5900    -0.2390 hc         1 5HD       0.039450
     28 H10          0.9430    -0.3620    -1.4010 hc         1 5HD       0.040450
     29 H10A         0.5250    -1.2820     0.0370 hc         1 5HD       0.040450
     30 H6           0.0070     0.8090     1.2720 hc         1 5HD       0.043700
     31 H7           1.5950     2.3410     0.1320 hc         1 5HD       0.054200
     32 H7A          0.6360     2.2830    -1.3410 hc         1 5HD       0.054200
     33 H8          -1.2210     3.4680    -0.1970 h1         1 5HD       0.016200
     34 H8A         -0.3630     3.3580     1.3560 h1         1 5HD       0.016200
     35 HO9         -0.0660     5.3990     0.3080 ho         1 5HD       0.442000
     36 H5          -1.4910     0.6880    -1.3990 hc         1 5HD       0.040450
     37 H5A         -2.0690     1.4660     0.0660 hc         1 5HD       0.040450
     38 HO4         -6.1050    -2.8460     0.2250 ho         1 5HD       0.442000
@<TRIPOS>BOND
     1     1     2 1   
     2     1    13 1   
     3     1    15 1   
     4     1    16 1   
     5     2     3 1   
     6     2    17 1   
     7     2    18 1   
     8     3    14 1   
     9     3    19 1   
    10     3    20 1   
    11     4     5 1   
    12     4    21 1   
    13     5     6 1   
    14     5    22 1   
    15     5    23 1   
    16     6     7 1   
    17     6    24 1   
    18     6    25 1   
    19     7     8 1   
    20     7    26 1   
    21     7    27 1   
    22     8     9 1   
    23     8    28 1   
    24     8    29 1   
    25     9    10 1   
    26     9    13 1   
    27     9    30 1   
    28    10    11 1   
    29    10    31 1   
    30    10    32 1   
    31    11    12 1   
    32    11    33 1   
    33    11    34 1   
    34    12    35 1   
    35    13    36 1   
    36    13    37 1   
    37    14    38 1   
@<TRIPOS>SUBSTRUCTURE
     1 5HD         1 TEMP              0 ****  ****    0 ROOT
