@<TRIPOS>MOLECULE
5HD
   38    37     1     0     0
SMALL
abcg2


@<TRIPOS>ATOM
      1 C1          -2.1000    -0.6720     0.1750 c3         1 5HD      -0.076400
      2 C2          -3.5820    -0.6980    -0.1820 c3         1 5HD      -0.082900
      3 C3          -4.2440    -2.0020     0.2170 c3         1 5HD       0.163600
      4 O14          5.2380    -2.6500     0.0440 oh         1 5HD      -0.662500
      5 C13          4.5850    -1.4250     0.3040 c3         1 5HD       0.163600
      6 C12          3.1310    -1.5340    -0.1090 c3         1 5HD      -0.082900
      7 C11          2.3640    -0.2460     0.1680 c3         1 5HD      -0.076400
      8 C10          0.9040    -0.3340    -0.2680 c3         1 5HD      -0.072900
      9 C6           0.0150     0.8200     0.2050 c3         1 5HD      -0.052700
     10 C7           0.5660     2.1730    -0.2520 c3         1 5HD      -0.081400
     11 C8          -0.2030     3.3670     0.2870 c3         1 5HD       0.162600
     12 O9           0.5280     4.5420    -0.0040 oh         1 5HD      -0.664000
     13 C5          -1.4360     0.6330    -0.2510 c3         1 5HD      -0.072900
     14 O4          -5.6040    -1.9680    -0.1620 oh         1 5HD      -0.662500
     15 H1          -1.9810    -0.8070     1.2550 hc         1 5HD       0.039450
     16 H1A         -1.6050    -1.5260    -0.2970 hc         1 5HD       0.039450
     17 H2          -4.0930     0.1350     0.3100 hc         1 5HD       0.051700
     18 H2A         -3.6990    -0.5480    -1.2610 hc         1 5HD       0.051700
     19 H3          -3.7160    -2.8370    -0.2650 h1         1 5HD       0.015450
     20 H3A         -4.1340    -2.1460     1.3000 h1         1 5HD       0.015450
     21 HO14         6.1590    -2.5590     0.3050 ho         1 5HD       0.442000
     22 H13          4.6380    -1.1620     1.3700 h1         1 5HD       0.015450
     23 H13A         5.0540    -0.5980    -0.2460 h1         1 5HD       0.015450
     24 H12          3.0720    -1.7750    -1.1750 hc         1 5HD       0.051700
     25 H12A         2.6600    -2.3630     0.4280 hc         1 5HD       0.051700
     26 H11          2.4100    -0.0200     1.2400 hc         1 5HD       0.039450
     27 H11A         2.8650     0.5830    -0.3400 hc         1 5HD       0.039450
     28 H10          0.8510    -0.4080    -1.3610 hc         1 5HD       0.040450
     29 H10A         0.4960    -1.2730     0.1160 hc         1 5HD       0.040450
     30 H6           0.0260     0.8110     1.3050 hc         1 5HD       0.043700
     31 H7           1.6030     2.2720     0.0810 hc         1 5HD       0.054200
     32 H7A          0.5840     2.2090    -1.3470 hc         1 5HD       0.054200
     33 H8          -1.2040     3.4130    -0.1560 h1         1 5HD       0.016200
     34 H8A         -0.3430     3.2440     1.3710 h1         1 5HD       0.016200
     35 HO9         -0.0040     5.2970     0.2610 ho         1 5HD       0.442000
     36 H5          -1.4800     0.7180    -1.3440 hc         1 5HD       0.040450
     37 H5A         -2.0420     1.4570     0.1380 hc         1 5HD       0.040450
     38 HO4         -6.0200    -2.7790     0.1430 ho         1 5HD       0.442000
@<TRIPOS>BOND
     1     1     2 1   
     2     1    13 1   
     3     1    15 1   
     4     1    16 1   
     5     2     3 1   
     6     2    17 1   
     7     2    18 1   
     8     3    14 1   
     9     3    19 1   
    10     3    20 1   
    11     4     5 1   
    12     4    21 1   
    13     5     6 1   
    14     5    22 1   
    15     5    23 1   
    16     6     7 1   
    17     6    24 1   
    18     6    25 1   
    19     7     8 1   
    20     7    26 1   
    21     7    27 1   
    22     8     9 1   
    23     8    28 1   
    24     8    29 1   
    25     9    10 1   
    26     9    13 1   
    27     9    30 1   
    28    10    11 1   
    29    10    31 1   
    30    10    32 1   
    31    11    12 1   
    32    11    33 1   
    33    11    34 1   
    34    12    35 1   
    35    13    36 1   
    36    13    37 1   
    37    14    38 1   
@<TRIPOS>SUBSTRUCTURE
     1 5HD         1 TEMP              0 ****  ****    0 ROOT
