@<TRIPOS>MOLECULE
5HE
   52    51     1     0     0
SMALL
No Charge or Current Charge


@<TRIPOS>ATOM
      1 C1         -10.3950    -0.2610     0.1250 c3         1 5HE      -0.085100
      2 C2          -9.6070    -1.1450     1.1090 c3         1 5HE      -0.043200
      3 C3          -8.8170    -2.2300     0.3990 c2         1 5HE      -0.223200
      4 C4          -7.5560    -2.1500    -0.0620 c2         1 5HE      -0.208200
      5 C5          -6.6290    -0.9490    -0.0170 c3         1 5HE      -0.011000
      6 C6          -5.3590    -1.2770     0.7460 c2         1 5HE      -0.223200
      7 C7          -4.1250    -0.7970     0.5100 c2         1 5HE      -0.204200
      8 C8          -3.7210     0.2020    -0.5590 c3         1 5HE      -0.011000
      9 C9          -2.6560     1.1490    -0.0380 c2         1 5HE      -0.229200
     10 C10         -1.5380     1.5380    -0.6760 c2         1 5HE      -0.199200
     11 C11         -1.1010     1.1260    -2.0700 c3         1 5HE      -0.011000
     12 C13         -0.0690     2.0830    -2.6370 c2         1 5HE      -0.223200
     13 C14          1.2400     2.1650    -2.3100 ce         1 5HE      -0.164000
     14 C16          1.9110     1.3200    -1.3140 ce         1 5HE      -0.200000
     15 C17          3.2240     1.4230    -1.0180 c2         1 5HE      -0.212200
     16 C18          3.9680     0.5770    -0.0060 c3         1 5HE       0.194500
     17 C19          5.5050     0.7210    -0.1300 c3         1 5HE      -0.109400
     18 C20          6.3050    -0.2330     0.7920 c3         1 5HE      -0.052400
     19 C21          7.8380    -0.1060     0.6140 c3         1 5HE      -0.206400
     20 C22          8.5650    -1.0820     1.5570 c          1 5HE       0.717000
     21 O23          8.7880    -2.2140     1.1560 o          1 5HE      -0.741000
     22 O24          8.8430    -0.6960     2.6830 o          1 5HE      -0.741000
     23 O3           3.5500     0.9770     1.2980 oh         1 5HE      -0.652000
     24 H1C1        -9.7140     0.2410    -0.5730 hc         1 5HE       0.031033
     25 H1C2       -11.1030    -0.8650    -0.4550 hc         1 5HE       0.031033
     26 H1C3       -10.9590     0.5060     0.6670 hc         1 5HE       0.031033
     27 H2C1        -8.9470    -0.5080     1.7090 hc         1 5HE       0.043200
     28 H2C2       -10.3080    -1.6010     1.8190 hc         1 5HE       0.043200
     29 H3          -9.3700    -3.1650     0.2840 ha         1 5HE       0.162000
     30 H4          -7.1110    -3.0200    -0.5500 ha         1 5HE       0.168000
     31 H5C1        -6.3950    -0.6450    -1.0440 hc         1 5HE       0.049700
     32 H5C2        -7.1180    -0.0850     0.4460 hc         1 5HE       0.049700
     33 H6          -5.5090    -1.9880     1.5610 ha         1 5HE       0.166000
     34 H7          -3.2940    -1.1300     1.1350 ha         1 5HE       0.171000
     35 H8C1        -3.3620    -0.3430    -1.4400 hc         1 5HE       0.049200
     36 H8C2        -4.5860     0.7870    -0.8910 hc         1 5HE       0.049200
     37 H9          -2.8590     1.5290     0.9650 ha         1 5HE       0.165000
     38 H10         -0.8500     2.2260    -0.1800 ha         1 5HE       0.173000
     39 H111        -0.6930     0.1080    -2.0470 hc         1 5HE       0.052200
     40 H112        -1.9680     1.0860    -2.7410 hc         1 5HE       0.052200
     41 H13         -0.4740     2.7610    -3.3910 ha         1 5HE       0.161000
     42 H14          1.8650     2.9100    -2.8090 ha         1 5HE       0.164000
     43 H16          1.3010     0.5780    -0.7940 ha         1 5HE       0.173000
     44 H17          3.8440     2.1610    -1.5310 ha         1 5HE       0.160000
     45 H18          3.7100    -0.4780    -0.1780 h1         1 5HE       0.072700
     46 H191         5.7890     0.5190    -1.1700 hc         1 5HE       0.031200
     47 H192         5.7950     1.7580     0.0800 hc         1 5HE       0.031200
     48 HA           3.5680     1.9570     1.3020 ho         1 5HE       0.436000
     49 H201         6.0490    -0.0290     1.8390 hc         1 5HE       0.046700
     50 H202         6.0020    -1.2680     0.5870 hc         1 5HE       0.046700
     51 H211         8.0410    -0.3620    -0.4340 hc         1 5HE       0.013700
     52 H212         8.0850     0.9320     0.8690 hc         1 5HE       0.013700
@<TRIPOS>BOND
     1     1     2 1   
     2     1    24 1   
     3     1    25 1   
     4     1    26 1   
     5     2     3 1   
     6     2    27 1   
     7     2    28 1   
     8     3     4 2   
     9     3    29 1   
    10     4     5 1   
    11     4    30 1   
    12     5     6 1   
    13     5    31 1   
    14     5    32 1   
    15     6     7 2   
    16     6    33 1   
    17     7     8 1   
    18     7    34 1   
    19     8     9 1   
    20     8    35 1   
    21     8    36 1   
    22     9    10 2   
    23     9    37 1   
    24    10    11 1   
    25    10    38 1   
    26    11    12 1   
    27    11    39 1   
    28    11    40 1   
    29    12    13 2   
    30    12    41 1   
    31    13    14 1   
    32    13    42 1   
    33    14    15 2   
    34    14    43 1   
    35    15    16 1   
    36    15    44 1   
    37    16    17 1   
    38    16    23 1   
    39    16    45 1   
    40    17    18 1   
    41    17    46 1   
    42    17    47 1   
    43    18    19 1   
    44    18    49 1   
    45    18    50 1   
    46    19    20 1   
    47    19    51 1   
    48    19    52 1   
    49    20    21 1   
    50    20    22 1   
    51    23    48 1   
@<TRIPOS>SUBSTRUCTURE
     1 5HE         1 TEMP              0 ****  ****    0 ROOT
