@<TRIPOS>MOLECULE
5HE
   52    51     1     0     0
SMALL
bcc


@<TRIPOS>ATOM
      1 C1         -11.1780    -0.3570     0.1750 c3         1 5HE      -0.085100
      2 C2          -9.9630    -1.2430     0.4480 c3         1 5HE      -0.043200
      3 C3          -9.1260    -1.4360    -0.7760 c2         1 5HE      -0.173200
      4 C4          -7.8630    -1.0610    -0.9750 c2         1 5HE      -0.158200
      5 C5          -6.9480    -0.3730    -0.0010 c3         1 5HE      -0.011000
      6 C6          -5.8530    -1.3000     0.4400 c2         1 5HE      -0.173200
      7 C7          -4.5540    -1.2100     0.1610 c2         1 5HE      -0.154200
      8 C8          -3.8650    -0.1410    -0.6380 c3         1 5HE      -0.011000
      9 C9          -3.0610     0.7530     0.2630 c2         1 5HE      -0.179200
     10 C10         -1.7340     0.8530     0.3300 c2         1 5HE      -0.149200
     11 C11         -0.7260     0.1190    -0.5090 c3         1 5HE      -0.011000
     12 C13         -0.0960     1.0560    -1.4950 c2         1 5HE      -0.173200
     13 C14          1.1560     1.5280    -1.4880 ce         1 5HE      -0.114000
     14 C16          2.1960     1.2260    -0.5180 ce         1 5HE      -0.150000
     15 C17          3.4300     1.7320    -0.5920 c2         1 5HE      -0.162200
     16 C18          4.5350     1.4330     0.3760 c3         1 5HE       0.171300
     17 C19          5.6670     0.6730    -0.3150 c3         1 5HE      -0.109400
     18 C20          6.8520     0.3540     0.5890 c3         1 5HE      -0.052400
     19 C21          7.9040    -0.4760    -0.1300 c3         1 5HE      -0.206400
     20 C22          9.1620    -0.8270     0.6840 c          1 5HE       0.927600
     21 O23          9.9880    -1.5740     0.1170 o          1 5HE      -0.846300
     22 O24          9.2700    -0.3450     1.8290 o          1 5HE      -0.846300
     23 O3           4.9900     2.6230     1.0010 oh         1 5HE      -0.589800
     24 H1C1       -10.8710     0.6470    -0.1200 hc         1 5HE       0.031033
     25 H1C2       -11.7940    -0.7650    -0.6280 hc         1 5HE       0.031033
     26 H1C3       -11.8050    -0.2690     1.0620 hc         1 5HE       0.031033
     27 H2C1        -9.3790    -0.8200     1.2670 hc         1 5HE       0.043200
     28 H2C2       -10.3110    -2.2210     0.7950 hc         1 5HE       0.043200
     29 H3          -9.6320    -1.9310    -1.6010 ha         1 5HE       0.112000
     30 H4          -7.4130    -1.2870    -1.9370 ha         1 5HE       0.118000
     31 H5C1        -6.5350     0.5230    -0.4700 hc         1 5HE       0.049700
     32 H5C2        -7.5000    -0.0320     0.8770 hc         1 5HE       0.049700
     33 H6          -6.1840    -2.1440     1.0380 ha         1 5HE       0.116000
     34 H7          -3.8950    -1.9720     0.5670 ha         1 5HE       0.121000
     35 H8C1        -3.2290    -0.6100    -1.3910 hc         1 5HE       0.049200
     36 H8C2        -4.5910     0.4660    -1.1840 hc         1 5HE       0.049200
     37 H9          -3.6500     1.3610     0.9430 ha         1 5HE       0.115000
     38 H10         -1.3110     1.5550     1.0410 ha         1 5HE       0.123000
     39 H111         0.0250    -0.3340     0.1430 hc         1 5HE       0.052200
     40 H112        -1.1970    -0.7030    -1.0520 hc         1 5HE       0.052200
     41 H13         -0.7570     1.3990    -2.2850 ha         1 5HE       0.111000
     42 H14          1.4400     2.2130    -2.2820 ha         1 5HE       0.114000
     43 H16          1.9540     0.5590     0.3040 ha         1 5HE       0.123000
     44 H17          3.6810     2.4000    -1.4160 ha         1 5HE       0.110000
     45 H18          4.1410     0.8110     1.1860 h1         1 5HE       0.072700
     46 H191         5.2500    -0.2560    -0.7170 hc         1 5HE       0.031200
     47 H192         6.0070     1.2480    -1.1860 hc         1 5HE       0.031200
     48 HA           5.4890     3.1330     0.3540 ho         1 5HE       0.397000
     49 H201         7.3020     1.2790     0.9550 hc         1 5HE       0.046700
     50 H202         6.5000    -0.1830     1.4760 hc         1 5HE       0.046700
     51 H211         7.4550    -1.4090    -0.4900 hc         1 5HE       0.013700
     52 H212         8.2230     0.0490    -1.0390 hc         1 5HE       0.013700
@<TRIPOS>BOND
     1     1     2 1   
     2     1    24 1   
     3     1    25 1   
     4     1    26 1   
     5     2     3 1   
     6     2    27 1   
     7     2    28 1   
     8     3     4 2   
     9     3    29 1   
    10     4     5 1   
    11     4    30 1   
    12     5     6 1   
    13     5    31 1   
    14     5    32 1   
    15     6     7 2   
    16     6    33 1   
    17     7     8 1   
    18     7    34 1   
    19     8     9 1   
    20     8    35 1   
    21     8    36 1   
    22     9    10 2   
    23     9    37 1   
    24    10    11 1   
    25    10    38 1   
    26    11    12 1   
    27    11    39 1   
    28    11    40 1   
    29    12    13 2   
    30    12    41 1   
    31    13    14 1   
    32    13    42 1   
    33    14    15 2   
    34    14    43 1   
    35    15    16 1   
    36    15    44 1   
    37    16    17 1   
    38    16    23 1   
    39    16    45 1   
    40    17    18 1   
    41    17    46 1   
    42    17    47 1   
    43    18    19 1   
    44    18    49 1   
    45    18    50 1   
    46    19    20 1   
    47    19    51 1   
    48    19    52 1   
    49    20    21 1   
    50    20    22 1   
    51    23    48 1   
@<TRIPOS>SUBSTRUCTURE
     1 5HE         1 TEMP              0 ****  ****    0 ROOT
