@<TRIPOS>MOLECULE
5HF
   64    67     1     0     0
SMALL
No Charge or Current Charge


@<TRIPOS>ATOM
      1 C10          3.8120     0.7090    -0.6240 c6         1 5HF       0.163800
      2 C13          5.0410    -0.0150     2.0390 ca         1 5HF      -0.087300
      3 C15          6.6850    -1.7770     2.4400 ca         1 5HF      -0.114500
      4 C17          7.4130     0.5390     2.2340 ca         1 5HF      -0.114500
      5 C24         -3.0400     2.5240    -0.5150 ca         1 5HF      -0.037000
      6 C26         -3.8630     2.0670     1.7370 ca         1 5HF       0.001000
      7 C28         -4.6680     1.6040     3.9920 ca         1 5HF      -0.090000
      8 C01         -1.8780    -5.0480    -1.4930 c3         1 5HF       0.146900
      9 O02         -1.4310    -3.9490    -2.3060 os         1 5HF      -0.461000
     10 C03         -1.6290    -2.6510    -1.7150 c3         1 5HF       0.130600
     11 C04         -1.1060    -1.5760    -2.7070 c3         1 5HF       0.217800
     12 N05         -1.2420    -0.1580    -2.2610 n3         1 5HF      -0.774500
     13 C06         -0.5300     0.2090    -1.0110 c3         1 5HF       0.226800
     14 C07          0.9950    -0.1050    -0.9650 c6         1 5HF      -0.072700
     15 C08          1.7710     0.5480    -2.1410 c6         1 5HF      -0.072400
     16 C09          3.2830     0.2600    -2.0070 c6         1 5HF      -0.075400
     17 N11          3.0530     0.0690     0.4900 n3         1 5HF      -0.723600
     18 C12          3.5930     0.4180     1.8280 c3         1 5HF       0.217100
     19 C14          5.3520    -1.3760     2.2400 ca         1 5HF      -0.098500
     20 C16          7.7160    -0.8200     2.4370 ca         1 5HF      -0.109000
     21 C18          6.0800     0.9400     2.0370 ca         1 5HF      -0.098500
     22 C19          1.5960     0.3570     0.3910 c6         1 5HF       0.172800
     23 S20         -2.7770     0.5670    -2.5020 sy         1 5HF       1.190600
     24 O21         -2.5650     1.6950    -3.4160 o          1 5HF      -0.541500
     25 O22         -3.7120    -0.5190    -2.8210 o          1 5HF      -0.541500
     26 C23         -3.2230     1.1670    -0.8590 ca         1 5HF      -0.283500
     27 C25         -3.3610     2.9690     0.7790 ca         1 5HF      -0.118000
     28 C27         -4.1720     2.5100     3.0370 ca         1 5HF      -0.113000
     29 C29         -4.8570     0.2530     3.6500 ca         1 5HF      -0.118000
     30 C30         -4.5520    -0.1950     2.3530 ca         1 5HF      -0.083000
     31 C31         -4.0540     0.7090     1.3930 ca         1 5HF      -0.070000
     32 C32         -3.7400     0.2640     0.0940 ca         1 5HF       0.045000
     33 H1           4.8790     0.4490    -0.5660 h1         1 5HF       0.036200
     34 H2           3.7430     1.8050    -0.5510 h1         1 5HF       0.036200
     35 H3           6.9180    -2.8300     2.5960 ha         1 5HF       0.111000
     36 H4           8.2100     1.2800     2.2300 ha         1 5HF       0.111000
     37 H5          -2.6420     3.2330    -1.2400 ha         1 5HF       0.124000
     38 H6          -4.9050     1.9480     4.9970 ha         1 5HF       0.115000
     39 H7          -1.7060    -6.0000    -2.0110 h1         1 5HF       0.031367
     40 H8          -1.3350    -5.0740    -0.5380 h1         1 5HF       0.031367
     41 H9          -2.9530    -4.9640    -1.2800 h1         1 5HF       0.031367
     42 H10         -2.6940    -2.4840    -1.5060 h1         1 5HF       0.030700
     43 H11         -1.0790    -2.5740    -0.7680 h1         1 5HF       0.030700
     44 H12         -0.0490    -1.8010    -2.9000 h1         1 5HF       0.076700
     45 H13         -1.6130    -1.7210    -3.6720 h1         1 5HF       0.076700
     46 H14         -0.6150     1.2920    -0.8500 h1         1 5HF       0.048700
     47 H15         -1.0030    -0.2820    -0.1490 h1         1 5HF       0.048700
     48 H16          1.1060    -1.1960    -1.0220 hc         1 5HF       0.060700
     49 H17          1.4070     0.1680    -3.1050 hc         1 5HF       0.052700
     50 H18          1.6000     1.6340    -2.1460 hc         1 5HF       0.052700
     51 H19          3.8360     0.7770    -2.8030 hc         1 5HF       0.047700
     52 H20          3.4710    -0.8140    -2.1400 hc         1 5HF       0.047700
     53 H22          2.9840    -0.0620     2.6080 h1         1 5HF       0.036700
     54 H23          3.5150     1.5030     1.9920 h1         1 5HF       0.036700
     55 H24          4.5580    -2.1210     2.2400 ha         1 5HF       0.117000
     56 H25          8.7470    -1.1300     2.5910 ha         1 5HF       0.111000
     57 H26          5.8540     1.9940     1.8800 ha         1 5HF       0.117000
     58 H27          1.4170     1.4360     0.5140 h1         1 5HF       0.028200
     59 H28          1.0580    -0.1520     1.2050 h1         1 5HF       0.028200
     60 H29         -3.2130     4.0160     1.0370 ha         1 5HF       0.115000
     61 H30         -4.0270     3.5530     3.3090 ha         1 5HF       0.116000
     62 H31         -5.2390    -0.4480     4.3910 ha         1 5HF       0.116000
     63 H32         -4.7000    -1.2430     2.0980 ha         1 5HF       0.120000
     64 H33         -3.8850    -0.7840    -0.1640 ha         1 5HF       0.143000
@<TRIPOS>BOND
     1     1    16 1   
     2     1    17 1   
     3     1    33 1   
     4     1    34 1   
     5     2    18 1   
     6     2    19 ar  
     7     2    21 ar  
     8     3    19 ar  
     9     3    20 ar  
    10     3    35 1   
    11     4    20 ar  
    12     4    21 ar  
    13     4    36 1   
    14     5    26 ar  
    15     5    27 ar  
    16     5    37 1   
    17     6    27 ar  
    18     6    28 ar  
    19     6    31 ar  
    20     7    28 ar  
    21     7    29 ar  
    22     7    38 1   
    23     8     9 1   
    24     8    39 1   
    25     8    40 1   
    26     8    41 1   
    27     9    10 1   
    28    10    11 1   
    29    10    42 1   
    30    10    43 1   
    31    11    12 1   
    32    11    44 1   
    33    11    45 1   
    34    12    13 1   
    35    12    23 1   
    36    13    14 1   
    37    13    46 1   
    38    13    47 1   
    39    14    15 1   
    40    14    22 1   
    41    14    48 1   
    42    15    16 1   
    43    15    49 1   
    44    15    50 1   
    45    16    51 1   
    46    16    52 1   
    47    17    18 1   
    48    17    22 1   
    49    18    53 1   
    50    18    54 1   
    51    19    55 1   
    52    20    56 1   
    53    21    57 1   
    54    22    58 1   
    55    22    59 1   
    56    23    24 2   
    57    23    25 2   
    58    23    26 1   
    59    26    32 ar  
    60    27    60 1   
    61    28    61 1   
    62    29    30 ar  
    63    29    62 1   
    64    30    31 ar  
    65    30    63 1   
    66    31    32 ar  
    67    32    64 1   
@<TRIPOS>SUBSTRUCTURE
     1 5HF         1 TEMP              0 ****  ****    0 ROOT
