@<TRIPOS>MOLECULE
5HF
   64    67     1     0     0
SMALL
bcc


@<TRIPOS>ATOM
      1 C10          4.2840     0.9770    -0.9670 c6         1 5HF       0.163800
      2 C13          6.1970     0.2050     1.2100 ca         1 5HF      -0.087300
      3 C15          7.7460    -1.5720     0.6790 ca         1 5HF      -0.132500
      4 C17          8.5820     0.5600     1.3980 ca         1 5HF      -0.132500
      5 C24         -2.9950     1.6160     0.4510 ca         1 5HF      -0.055000
      6 C26         -5.2040     1.0880     1.2850 ca         1 5HF       0.001000
      7 C28         -7.4120     0.5590     2.1100 ca         1 5HF      -0.108000
      8 C01         -3.3730    -2.7240     1.2760 c3         1 5HF       0.123700
      9 O02         -2.7760    -2.3550     0.0620 os         1 5HF      -0.414600
     10 C03         -1.4050    -2.6340     0.0090 c3         1 5HF       0.107400
     11 C04         -0.8040    -1.9410    -1.1950 c3         1 5HF       0.217800
     12 N05         -0.7480    -0.4870    -1.1020 n3         1 5HF      -0.774500
     13 C06          0.1770     0.0890    -0.1310 c3         1 5HF       0.226800
     14 C07          1.6390    -0.0990    -0.5250 c6         1 5HF      -0.072700
     15 C08          1.9780     0.5590    -1.8560 c6         1 5HF      -0.072400
     16 C09          3.4710     0.4420    -2.1340 c6         1 5HF      -0.075400
     17 N11          3.9290     0.2980     0.2670 n3         1 5HF      -0.723600
     18 C12          4.7800     0.6980     1.3670 c3         1 5HF       0.217100
     19 C14          6.4460    -1.1020     0.7920 ca         1 5HF      -0.116500
     20 C16          8.8200    -0.7420     0.9830 ca         1 5HF      -0.127000
     21 C18          7.2770     1.0290     1.5070 ca         1 5HF      -0.116500
     22 C19          2.5250     0.4700     0.5790 c6         1 5HF       0.172800
     23 S20         -1.8970     0.4570    -1.7900 sy         1 5HF       1.332200
     24 O21         -1.2980     1.7640    -2.0220 o          1 5HF      -0.612300
     25 O22         -2.4510    -0.2780    -2.9180 o          1 5HF      -0.612300
     26 C23         -3.2000     0.7110    -0.6140 ca         1 5HF      -0.283500
     27 C25         -3.9790     1.7900     1.3810 ca         1 5HF      -0.136000
     28 C27         -6.2390     1.2520     2.2350 ca         1 5HF      -0.131000
     29 C29         -7.6080    -0.3290     1.0300 ca         1 5HF      -0.136000
     30 C30         -6.6260    -0.5040     0.0950 ca         1 5HF      -0.101000
     31 C31         -5.4030     0.1980     0.1990 ca         1 5HF      -0.070000
     32 C32         -4.3710     0.0230    -0.7480 ca         1 5HF       0.027000
     33 H1           5.3490     0.8300    -1.1570 h1         1 5HF       0.036200
     34 H2           4.1250     2.0680    -0.8770 h1         1 5HF       0.036200
     35 H3           7.9250    -2.5880     0.3510 ha         1 5HF       0.129000
     36 H4           9.4110     1.2160     1.6310 ha         1 5HF       0.129000
     37 H5          -2.0750     2.1780     0.5310 ha         1 5HF       0.142000
     38 H6          -8.1990     0.6910     2.8410 ha         1 5HF       0.133000
     39 H7          -4.4270    -2.4550     1.2280 h1         1 5HF       0.031367
     40 H8          -3.2990    -3.8020     1.4650 h1         1 5HF       0.031367
     41 H9          -2.9240    -2.2010     2.1290 h1         1 5HF       0.031367
     42 H10         -0.9000    -2.3130     0.9310 h1         1 5HF       0.030700
     43 H11         -1.2160    -3.7130    -0.0870 h1         1 5HF       0.030700
     44 H12          0.2180    -2.3000    -1.3280 h1         1 5HF       0.076700
     45 H13         -1.3410    -2.2270    -2.0970 h1         1 5HF       0.076700
     46 H14         -0.0180     1.1560    -0.0280 h1         1 5HF       0.048700
     47 H15         -0.0080    -0.3500     0.8540 h1         1 5HF       0.048700
     48 H16          1.8670    -1.1690    -0.5950 hc         1 5HF       0.060700
     49 H17          1.4020     0.1120    -2.6680 hc         1 5HF       0.052700
     50 H18          1.6930     1.6160    -1.8140 hc         1 5HF       0.052700
     51 H19          3.7380     0.9870    -3.0410 hc         1 5HF       0.047700
     52 H20          3.7360    -0.6060    -2.3010 hc         1 5HF       0.047700
     53 H22          4.3640     0.2720     2.2860 h1         1 5HF       0.036700
     54 H23          4.7870     1.7910     1.5150 h1         1 5HF       0.036700
     55 H24          5.6120    -1.7460     0.5450 ha         1 5HF       0.135000
     56 H25          9.8340    -1.1090     0.8910 ha         1 5HF       0.129000
     57 H26          7.0990     2.0510     1.8200 ha         1 5HF       0.135000
     58 H27          2.2670     1.5360     0.7330 h1         1 5HF       0.028200
     59 H28          2.3120    -0.0420     1.5220 h1         1 5HF       0.028200
     60 H29         -3.8300     2.4810     2.2010 ha         1 5HF       0.133000
     61 H30         -6.0900     1.9340     3.0620 ha         1 5HF       0.134000
     62 H31         -8.5410    -0.8700     0.9470 ha         1 5HF       0.134000
     63 H32         -6.7740    -1.1840    -0.7360 ha         1 5HF       0.138000
     64 H33         -4.5240    -0.6690    -1.5650 ha         1 5HF       0.161000
@<TRIPOS>BOND
     1     1    16 1   
     2     1    17 1   
     3     1    33 1   
     4     1    34 1   
     5     2    18 1   
     6     2    19 ar  
     7     2    21 ar  
     8     3    19 ar  
     9     3    20 ar  
    10     3    35 1   
    11     4    20 ar  
    12     4    21 ar  
    13     4    36 1   
    14     5    26 ar  
    15     5    27 ar  
    16     5    37 1   
    17     6    27 ar  
    18     6    28 ar  
    19     6    31 ar  
    20     7    28 ar  
    21     7    29 ar  
    22     7    38 1   
    23     8     9 1   
    24     8    39 1   
    25     8    40 1   
    26     8    41 1   
    27     9    10 1   
    28    10    11 1   
    29    10    42 1   
    30    10    43 1   
    31    11    12 1   
    32    11    44 1   
    33    11    45 1   
    34    12    13 1   
    35    12    23 1   
    36    13    14 1   
    37    13    46 1   
    38    13    47 1   
    39    14    15 1   
    40    14    22 1   
    41    14    48 1   
    42    15    16 1   
    43    15    49 1   
    44    15    50 1   
    45    16    51 1   
    46    16    52 1   
    47    17    18 1   
    48    17    22 1   
    49    18    53 1   
    50    18    54 1   
    51    19    55 1   
    52    20    56 1   
    53    21    57 1   
    54    22    58 1   
    55    22    59 1   
    56    23    24 2   
    57    23    25 2   
    58    23    26 1   
    59    26    32 ar  
    60    27    60 1   
    61    28    61 1   
    62    29    30 ar  
    63    29    62 1   
    64    30    31 ar  
    65    30    63 1   
    66    31    32 ar  
    67    32    64 1   
@<TRIPOS>SUBSTRUCTURE
     1 5HF         1 TEMP              0 ****  ****    0 ROOT
