@<TRIPOS>MOLECULE
5HG
   28    29     1     0     0
SMALL
No Charge or Current Charge


@<TRIPOS>ATOM
      1 O36         -4.4580    -1.0010     0.4600 o          1 5HG      -0.931167
      2 P30         -4.1420    -0.1070    -0.6940 p5         1 5HG       1.289500
      3 O32         -5.4110     0.3300    -1.3480 o          1 5HG      -0.931167
      4 O34         -3.2980    -0.8370    -1.6860 o          1 5HG      -0.931167
      5 C28         -3.2150     1.4300    -0.0810 c3         1 5HG      -0.150400
      6 O26         -2.1400     1.2280     0.8820 os         1 5HG      -0.476000
      7 C24         -0.9870     0.5150     0.3850 c3         1 5HG       0.160600
      8 C22          0.0730     0.4850     1.5050 c3         1 5HG       0.060600
      9 N17          1.3020    -0.2310     1.1180 na         1 5HG      -0.242300
     10 C15          1.6640    -1.5480     1.4050 cc         1 5HG       0.429700
     11 N13          2.8690    -1.8400     0.8710 nd         1 5HG      -0.600100
     12 C2           3.2420    -0.6440     0.2380 ca         1 5HG      -0.094600
     13 C3           2.2970     0.3440     0.3780 ca         1 5HG       0.115500
     14 N4           2.4470     1.5710    -0.1590 nb         1 5HG      -0.179000
     15 C5           3.5960     1.7700    -0.8490 ca         1 5HG       0.151900
     16 N6           4.5910     0.8690    -1.0470 nb         1 5HG      -0.327000
     17 C1           4.4090    -0.3410    -0.4970 ca         1 5HG       0.433900
     18 N20          5.4060    -1.2430    -0.7010 nv         1 5HG      -1.085900
     19 H281        -3.9770     2.0800     0.3660 h1         1 5HG       0.003200
     20 H282        -2.8310     1.9520    -0.9670 h1         1 5HG       0.003200
     21 H241        -0.5690     1.0140    -0.4990 h1         1 5HG       0.046200
     22 H242        -1.2470    -0.5160     0.1120 h1         1 5HG       0.046200
     23 H221        -0.3530    -0.0040     2.3900 h1         1 5HG       0.059700
     24 H222         0.3350     1.5140     1.7830 h1         1 5HG       0.059700
     25 H15          1.0330    -2.2150     1.9820 h5         1 5HG       0.075800
     26 H5           3.7350     2.7550    -1.2900 h5         1 5HG       0.030100
     27 H201         6.0560    -1.0690    -1.4630 hn         1 5HG       0.492500
     28 H202         5.1980    -2.2160    -0.4870 hn         1 5HG       0.492500
@<TRIPOS>BOND
     1     1     2 1   
     2     2     3 1   
     3     2     4 1   
     4     2     5 1   
     5     5     6 1   
     6     5    19 1   
     7     5    20 1   
     8     6     7 1   
     9     7     8 1   
    10     7    21 1   
    11     7    22 1   
    12     8     9 1   
    13     8    23 1   
    14     8    24 1   
    15     9    10 1   
    16     9    13 1   
    17    10    11 2   
    18    10    25 1   
    19    11    12 1   
    20    12    13 ar  
    21    12    17 ar  
    22    13    14 ar  
    23    14    15 ar  
    24    15    16 ar  
    25    15    26 1   
    26    16    17 ar  
    27    17    18 1   
    28    18    27 1   
    29    18    28 1   
@<TRIPOS>SUBSTRUCTURE
     1 5HG         1 TEMP              0 ****  ****    0 ROOT
