@<TRIPOS>MOLECULE
5HG
   28    29     1     0     0
SMALL
abcg2


@<TRIPOS>ATOM
      1 O36         -4.8100    -0.5550     0.8220 o          1 5HG      -0.931167
      2 P30         -4.2000    -0.1500    -0.5240 p5         1 5HG       1.289500
      3 O32         -5.2130     0.4260    -1.5240 o          1 5HG      -0.931167
      4 O34         -3.2730    -1.2150    -1.1270 o          1 5HG      -0.931167
      5 C28         -3.1290     1.3350    -0.1570 c3         1 5HG      -0.150400
      6 O26         -2.1040     1.1440     0.8160 os         1 5HG      -0.476000
      7 C24         -0.9770     0.4750     0.3340 c3         1 5HG       0.160600
      8 C22          0.0490     0.4610     1.4570 c3         1 5HG       0.060600
      9 N17          1.2710    -0.1970     1.0460 na         1 5HG      -0.242300
     10 C15          1.5980    -1.5100     1.2230 cc         1 5HG       0.429700
     11 N13          2.7510    -1.8360     0.7130 nd         1 5HG      -0.600100
     12 C2           3.2110    -0.6710     0.1570 ca         1 5HG      -0.094600
     13 C3           2.3020     0.3590     0.3500 ca         1 5HG       0.115500
     14 N4           2.4350     1.6200    -0.0590 nb         1 5HG      -0.179000
     15 C5           3.5740     1.8070    -0.7000 ca         1 5HG       0.151900
     16 N6           4.5350     0.9220    -0.9580 nb         1 5HG      -0.327000
     17 C1           4.3880    -0.3400    -0.5380 ca         1 5HG       0.433900
     18 N20          5.3550    -1.2260    -0.7840 nv         1 5HG      -1.085900
     19 H281        -3.7570     2.1400     0.2400 h1         1 5HG       0.003200
     20 H282        -2.6830     1.7260    -1.0860 h1         1 5HG       0.003200
     21 H241        -0.5520     0.9920    -0.5410 h1         1 5HG       0.046200
     22 H242        -1.2080    -0.5480     0.0210 h1         1 5HG       0.046200
     23 H221        -0.3400    -0.0680     2.3280 h1         1 5HG       0.059700
     24 H222         0.2960     1.4760     1.7670 h1         1 5HG       0.059700
     25 H15          0.9370    -2.1810     1.7520 h5         1 5HG       0.075800
     26 H5           3.7570     2.8110    -1.0680 h5         1 5HG       0.030100
     27 H201         6.1570    -0.9630    -1.3310 hn         1 5HG       0.492500
     28 H202         5.2530    -2.1910    -0.5240 hn         1 5HG       0.492500
@<TRIPOS>BOND
     1     1     2 1   
     2     2     3 1   
     3     2     4 1   
     4     2     5 1   
     5     5     6 1   
     6     5    19 1   
     7     5    20 1   
     8     6     7 1   
     9     7     8 1   
    10     7    21 1   
    11     7    22 1   
    12     8     9 1   
    13     8    23 1   
    14     8    24 1   
    15     9    10 1   
    16     9    13 1   
    17    10    11 2   
    18    10    25 1   
    19    11    12 1   
    20    12    13 ar  
    21    12    17 ar  
    22    13    14 ar  
    23    14    15 ar  
    24    15    16 ar  
    25    15    26 1   
    26    16    17 ar  
    27    17    18 1   
    28    18    27 1   
    29    18    28 1   
@<TRIPOS>SUBSTRUCTURE
     1 5HG         1 TEMP              0 ****  ****    0 ROOT
