@<TRIPOS>MOLECULE
5HH
   54    57     1     0     0
SMALL
No Charge or Current Charge


@<TRIPOS>ATOM
      1 C2           5.7710    -2.8130     1.7130 ca         1 5HH      -0.085000
      2 C3           5.4420    -1.8760     2.7070 ca         1 5HH      -0.112000
      3 C4          -7.4440    -1.9240    -0.9170 ca         1 5HH      -0.114500
      4 C5          -7.6720     0.1650     0.3070 ca         1 5HH      -0.114500
      5 C6           5.4140    -2.5730     0.3750 ca         1 5HH      -0.111000
      6 C7           4.7560    -0.6970     2.3660 ca         1 5HH      -0.084000
      7 C10         -6.3350     0.4850     0.0120 ca         1 5HH      -0.099000
      8 C11          3.6790     0.0240    -1.6570 ca         1 5HH      -0.046000
      9 C12          3.7100     0.7270     0.6800 ca         1 5HH       0.024000
     10 C14          4.3970    -0.4520     1.0270 ca         1 5HH      -0.067000
     11 C16          3.3500     0.9680    -0.6610 ca         1 5HH      -0.309500
     12 C18         -1.2130     0.7510     1.2070 c6         1 5HH      -0.066400
     13 C19         -3.1970    -0.8530     1.1280 c6         1 5HH       0.163800
     14 C20         -1.7040    -0.7190    -0.8190 c6         1 5HH       0.171800
     15 C21         -1.1020     0.6360    -0.3410 c6         1 5HH      -0.100700
     16 C13          4.7270    -1.3940     0.0270 ca         1 5HH       0.002000
     17 C8           4.3660    -1.1510    -1.3110 ca         1 5HH      -0.107000
     18 S1           2.4500     2.4700    -1.0770 sy         1 5HH       1.150600
     19 O1           2.9230     3.5590    -0.2190 o          1 5HH      -0.533000
     20 O2           2.3210     2.6060    -2.5290 o          1 5HH      -0.533000
     21 N2           0.9220     2.1080    -0.5160 n7         1 5HH      -0.865300
     22 C23          0.3620     0.7850    -0.8400 c3         1 5HH       0.203800
     23 C17         -2.6640     0.4930     1.6830 c6         1 5HH      -0.112400
     24 N1          -3.1090    -0.9150    -0.3610 n3         1 5HH      -0.721600
     25 C22         -4.0930    -0.0560    -1.0730 c3         1 5HH       0.217100
     26 C15         -5.5450    -0.3990    -0.7500 ca         1 5HH      -0.088300
     27 C9          -6.1070    -1.6050    -1.2130 ca         1 5HH      -0.099000
     28 C1          -8.2270    -1.0390    -0.1570 ca         1 5HH      -0.109000
     29 H1           6.3010    -3.7250     1.9790 ha         1 5HH       0.117000
     30 H2           5.7190    -2.0640     3.7430 ha         1 5HH       0.119000
     31 H4          -8.2770     0.8510     0.8970 ha         1 5HH       0.111500
     32 H5           5.6710    -3.3030    -0.3900 ha         1 5HH       0.119000
     33 H6           4.5060     0.0220     3.1430 ha         1 5HH       0.120000
     34 H7          -5.9130     1.4190     0.3780 ha         1 5HH       0.116000
     35 H8           3.4030     0.1940    -2.6970 ha         1 5HH       0.129000
     36 H9           3.4490     1.4490     1.4530 ha         1 5HH       0.139000
     37 H10         -0.5390     0.0240     1.6820 hc         1 5HH       0.051700
     38 H11         -0.8870     1.7440     1.5440 hc         1 5HH       0.051700
     39 H12         -2.6040    -1.6690     1.5660 h1         1 5HH       0.056700
     40 H13         -4.2310    -1.0050     1.4710 h1         1 5HH       0.056700
     41 H14         -1.6500    -0.7760    -1.9170 h1         1 5HH       0.051200
     42 H15         -1.0750    -1.5370    -0.4350 h1         1 5HH       0.051200
     43 H16         -1.6690     1.4560    -0.8010 hc         1 5HH       0.046700
     44 H17          4.6150    -1.8740    -2.0840 ha         1 5HH       0.119000
     45 H18          0.3750     2.8250    -0.9850 hn         1 5HH       0.479000
     46 H19          0.9560    -0.0160    -0.3790 h1         1 5HH       0.052700
     47 H20          0.3750     0.6210    -1.9270 h1         1 5HH       0.052700
     48 H21         -2.6970     0.4770     2.7800 hc         1 5HH       0.045200
     49 H22         -3.3150     1.3190     1.3680 hc         1 5HH       0.045200
     50 H24         -3.9190     1.0040    -0.8460 h1         1 5HH       0.036700
     51 H25         -3.9570    -0.1670    -2.1580 h1         1 5HH       0.036700
     52 H26         -5.5030    -2.2950    -1.7980 ha         1 5HH       0.116000
     53 H27         -9.2620    -1.2860     0.0720 ha         1 5HH       0.111000
     54 H3          -7.8720    -2.8580    -1.2770 ha         1 5HH       0.111500
@<TRIPOS>BOND
     1     1     2 ar  
     2     1     5 ar  
     3     1    29 1   
     4     2     6 ar  
     5     2    30 1   
     6     3    27 ar  
     7     3    28 ar  
     8     3    54 1   
     9     4     7 ar  
    10     4    28 ar  
    11     4    31 1   
    12     5    16 ar  
    13     5    32 1   
    14     6    10 ar  
    15     6    33 1   
    16     7    26 ar  
    17     7    34 1   
    18     8    11 ar  
    19     8    17 ar  
    20     8    35 1   
    21     9    10 ar  
    22     9    11 ar  
    23     9    36 1   
    24    10    16 ar  
    25    11    18 1   
    26    12    15 1   
    27    12    23 1   
    28    12    37 1   
    29    12    38 1   
    30    13    23 1   
    31    13    24 1   
    32    13    39 1   
    33    13    40 1   
    34    14    15 1   
    35    14    24 1   
    36    14    41 1   
    37    14    42 1   
    38    15    22 1   
    39    15    43 1   
    40    16    17 ar  
    41    17    44 1   
    42    18    19 2   
    43    18    20 2   
    44    18    21 1   
    45    21    22 1   
    46    21    45 1   
    47    22    46 1   
    48    22    47 1   
    49    23    48 1   
    50    23    49 1   
    51    24    25 1   
    52    25    26 1   
    53    25    50 1   
    54    25    51 1   
    55    26    27 ar  
    56    27    52 1   
    57    28    53 1   
@<TRIPOS>SUBSTRUCTURE
     1 5HH         1 TEMP              0 ****  ****    0 ROOT
