@<TRIPOS>MOLECULE
5HH
   54    57     1     0     0
SMALL
abcg2


@<TRIPOS>ATOM
      1 C2           5.7930    -3.5140    -0.3350 ca         1 5HH      -0.085000
      2 C3           5.5290    -3.2640     1.0280 ca         1 5HH      -0.112000
      3 C4          -6.9460    -2.4490     0.3300 ca         1 5HH      -0.114500
      4 C5          -7.3270    -1.1140    -1.6280 ca         1 5HH      -0.114500
      5 C6           5.4100    -2.6140    -1.2930 ca         1 5HH      -0.111000
      6 C7           4.8860    -2.1180     1.4090 ca         1 5HH      -0.084000
      7 C10         -6.0180    -0.6510    -1.5600 ca         1 5HH      -0.099000
      8 C11          3.6980     0.6780    -1.5260 ca         1 5HH      -0.046000
      9 C12          3.8120     0.0190     0.8070 ca         1 5HH       0.024000
     10 C14          4.4780    -1.1720     0.4400 ca         1 5HH      -0.067000
     11 C16          3.4390     0.9130    -0.1580 ca         1 5HH      -0.309500
     12 C18         -1.8580     2.2850     0.9290 c6         1 5HH      -0.066400
     13 C19         -3.9350     0.9400     1.3490 c6         1 5HH       0.163800
     14 C20         -1.8660    -0.2160     1.0020 c6         1 5HH       0.171800
     15 C21         -1.2000     1.0200     0.3830 c6         1 5HH      -0.100700
     16 C13          4.7450    -1.4220    -0.9310 ca         1 5HH       0.002000
     17 C8           4.3380    -0.4690    -1.8960 ca         1 5HH      -0.107000
     18 S1           2.5490     2.3770     0.2940 sy         1 5HH       1.150600
     19 O1           2.6710     2.5510     1.7320 o          1 5HH      -0.533000
     20 O2           2.9530     3.4450    -0.6050 o          1 5HH      -0.533000
     21 N2           0.9660     2.0780    -0.0300 n7         1 5HH      -0.865300
     22 C23          0.2980     0.9710     0.6480 c3         1 5HH       0.203800
     23 C17         -3.3730     2.2270     0.7500 c6         1 5HH      -0.112400
     24 N1          -3.3050    -0.2660     0.8320 n3         1 5HH      -0.721600
     25 C22         -3.7260    -0.6120    -0.5120 c3         1 5HH       0.217100
     26 C15         -5.1580    -1.0840    -0.5560 ca         1 5HH      -0.088300
     27 C9          -5.6390    -1.9870     0.3910 ca         1 5HH      -0.099000
     28 C1          -7.7950    -2.0150    -0.6820 ca         1 5HH      -0.109000
     29 H1           6.3020    -4.4250    -0.6210 ha         1 5HH       0.117000
     30 H2           5.8390    -3.9860     1.7730 ha         1 5HH       0.119000
     31 H4          -7.9810    -0.7630    -2.4150 ha         1 5HH       0.111500
     32 H5           5.6130    -2.8080    -2.3390 ha         1 5HH       0.119000
     33 H6           4.6830    -1.9230     2.4540 ha         1 5HH       0.120000
     34 H7          -5.6610     0.0580    -2.2990 ha         1 5HH       0.116000
     35 H8           3.4030     1.4000    -2.2760 ha         1 5HH       0.129000
     36 H9           3.6100     0.2070     1.8540 ha         1 5HH       0.139000
     37 H10         -1.6210     2.3770     1.9960 hc         1 5HH       0.051700
     38 H11         -1.4480     3.1730     0.4430 hc         1 5HH       0.051700
     39 H12         -3.7870     0.9580     2.4350 h1         1 5HH       0.056700
     40 H13         -5.0130     0.8760     1.1860 h1         1 5HH       0.056700
     41 H14         -1.4290    -1.1280     0.5850 h1         1 5HH       0.051200
     42 H15         -1.6510    -0.2300     2.0780 h1         1 5HH       0.051200
     43 H16         -1.3520     0.9820    -0.7040 hc         1 5HH       0.046700
     44 H17          4.5440    -0.6580    -2.9420 ha         1 5HH       0.119000
     45 H18          0.7740     2.1210    -1.0260 hn         1 5HH       0.479000
     46 H19          0.4840     1.0580     1.7200 h1         1 5HH       0.052700
     47 H20          0.6990     0.0040     0.3210 h1         1 5HH       0.052700
     48 H21         -3.8450     3.0880     1.2280 hc         1 5HH       0.045200
     49 H22         -3.6210     2.2900    -0.3140 hc         1 5HH       0.045200
     50 H24         -3.6010     0.2010    -1.2440 h1         1 5HH       0.036700
     51 H25         -3.0800    -1.4250    -0.8600 h1         1 5HH       0.036700
     52 H26         -4.9840    -2.3220     1.1850 ha         1 5HH       0.116000
     53 H27         -8.8150    -2.3750    -0.7300 ha         1 5HH       0.111000
     54 H3          -7.3040    -3.1490     1.0730 ha         1 5HH       0.111500
@<TRIPOS>BOND
     1     1     2 ar  
     2     1     5 ar  
     3     1    29 1   
     4     2     6 ar  
     5     2    30 1   
     6     3    27 ar  
     7     3    28 ar  
     8     3    54 1   
     9     4     7 ar  
    10     4    28 ar  
    11     4    31 1   
    12     5    16 ar  
    13     5    32 1   
    14     6    10 ar  
    15     6    33 1   
    16     7    26 ar  
    17     7    34 1   
    18     8    11 ar  
    19     8    17 ar  
    20     8    35 1   
    21     9    10 ar  
    22     9    11 ar  
    23     9    36 1   
    24    10    16 ar  
    25    11    18 1   
    26    12    15 1   
    27    12    23 1   
    28    12    37 1   
    29    12    38 1   
    30    13    23 1   
    31    13    24 1   
    32    13    39 1   
    33    13    40 1   
    34    14    15 1   
    35    14    24 1   
    36    14    41 1   
    37    14    42 1   
    38    15    22 1   
    39    15    43 1   
    40    16    17 ar  
    41    17    44 1   
    42    18    19 2   
    43    18    20 2   
    44    18    21 1   
    45    21    22 1   
    46    21    45 1   
    47    22    46 1   
    48    22    47 1   
    49    23    48 1   
    50    23    49 1   
    51    24    25 1   
    52    25    26 1   
    53    25    50 1   
    54    25    51 1   
    55    26    27 ar  
    56    27    52 1   
    57    28    53 1   
@<TRIPOS>SUBSTRUCTURE
     1 5HH         1 TEMP              0 ****  ****    0 ROOT
