@<TRIPOS>MOLECULE
5HI
   71    73     1     0     0
SMALL
No Charge or Current Charge


@<TRIPOS>ATOM
      1 N1          -0.2090    -0.2660     1.1510 na         1 5HI      -0.143500
      2 N3           1.8030     0.6660     0.8940 nc         1 5HI      -0.688000
      3 C5           0.5180     0.9310     1.0540 cd         1 5HI       0.465000
      4 C7          -1.6750    -0.3840     1.3050 c3         1 5HI       0.063600
      5 C8          -2.4330    -0.5010    -0.0460 c3         1 5HI      -0.103400
      6 C10         -4.7060    -0.7570    -1.2240 c3         1 5HI      -0.154400
      7 C13         -0.6420    -3.4430     0.4950 c3         1 5HI      -0.086100
      8 C15          0.6430     4.6610     1.8230 ca         1 5HI      -0.160000
      9 C17          6.7780    -2.1230    -1.3710 ca         1 5HI      -0.089500
     10 C20          7.1410    -2.2830    -2.7200 ca         1 5HI      -0.115000
     11 C21         -1.2170     2.8070     0.8350 ca         1 5HI      -0.060000
     12 C24         -1.5710     4.1610     0.9720 ca         1 5HI      -0.160000
     13 C26          5.8500     0.0660    -1.8830 ca         1 5HI      -0.089500
     14 O2           3.5240    -2.5840     0.8820 o          1 5HI      -0.625100
     15 N2           4.3150    -0.4710     0.6650 ns         1 5HI      -0.492900
     16 C1           5.7390    -0.7870     0.5320 c3         1 5HI       0.169000
     17 C14          6.6210     0.2520     1.2830 c3         1 5HI       0.150600
     18 O5           6.2530     1.6070     0.9580 oh         1 5HI      -0.655000
     19 C32          6.1310    -0.9460    -0.9400 ca         1 5HI      -0.088300
     20 C23          6.2120    -0.0960    -3.2310 ca         1 5HI      -0.115000
     21 C29          6.8590    -1.2700    -3.6510 ca         1 5HI      -0.112000
     22 C2           1.9460    -0.7000     0.9400 cc         1 5HI       0.158500
     23 C19          0.7230    -1.3220     1.1410 cd         1 5HI      -0.096300
     24 C12          0.1370    -3.0610     2.9100 c3         1 5HI      -0.086100
     25 C27          0.0690     2.3470     1.2110 ca         1 5HI      -0.135500
     26 C30         -0.6430     5.0830     1.4700 ca         1 5HI       0.174000
     27 F1          -0.9860     6.3840     1.5980 f          1 5HI      -0.182000
     28 C18          0.9990     3.3080     1.6860 ca         1 5HI      -0.060000
     29 C9          -3.9670    -0.5550     0.1180 c3         1 5HI       0.183300
     30 O4          -4.4280     0.6640     0.6880 oh         1 5HI      -0.706000
     31 C11         -6.2480    -0.8550    -1.1000 c3         1 5HI       0.177300
     32 O3          -6.7640     0.3890    -0.6130 oh         1 5HI      -0.672000
     33 C35         -6.9300    -1.1520    -2.4480 c3         1 5HI      -0.241400
     34 C36         -8.4280    -1.3580    -2.2180 c          1 5HI       0.724000
     35 O6          -9.1250    -0.3590    -2.1420 o          1 5HI      -0.729500
     36 O7          -8.8310    -2.4910    -2.0070 o          1 5HI      -0.729500
     37 H6           1.3180    -3.3840     1.1950 hc         1 5HI       0.095700
     38 H7          -1.9090    -1.2570     1.9220 h1         1 5HI       0.074700
     39 H7A         -2.0390     0.4830     1.8690 h1         1 5HI       0.074700
     40 H8          -2.1650     0.3260    -0.7110 hc         1 5HI       0.055200
     41 H8A         -2.1080    -1.4020    -0.5730 hc         1 5HI       0.055200
     42 H10         -4.4460     0.0570    -1.9130 hc         1 5HI       0.045700
     43 H10A        -4.3360    -1.6820    -1.6830 hc         1 5HI       0.045700
     44 H13         -0.4810    -3.1490    -0.5490 hc         1 5HI       0.038033
     45 H13A        -0.5750    -4.5360     0.5480 hc         1 5HI       0.038033
     46 H13B        -1.6590    -3.1710     0.7940 hc         1 5HI       0.038033
     47 H15          1.3650     5.3810     2.2000 ha         1 5HI       0.133000
     48 H21         -1.9600     2.1400     0.4200 ha         1 5HI       0.138000
     49 H24         -2.5640     4.4970     0.6850 ha         1 5HI       0.133000
     50 H26          5.3480     0.9790    -1.5720 ha         1 5HI       0.114000
     51 HN2          4.0350     0.5040     0.6530 hn         1 5HI       0.350500
     52 H1           5.9150    -1.7500     1.0300 h1         1 5HI       0.072700
     53 H14          6.5020     0.0890     2.3620 h1         1 5HI       0.025700
     54 H14A         7.6760     0.0700     1.0390 h1         1 5HI       0.025700
     55 HO5          6.8630     2.1960     1.4550 ho         1 5HI       0.441000
     56 H23          5.9920     0.6900    -3.9510 ha         1 5HI       0.108000
     57 H29          7.1390    -1.3950    -4.6940 ha         1 5HI       0.106000
     58 H12          0.0350    -4.1360     3.1020 hc         1 5HI       0.038033
     59 H12A         0.9640    -2.6860     3.5250 hc         1 5HI       0.038033
     60 H12B        -0.7830    -2.5690     3.2410 hc         1 5HI       0.038033
     61 H18          2.0060     3.0060     1.9690 ha         1 5HI       0.138000
     62 H9          -4.2190    -1.3960     0.7790 h1         1 5HI       0.031700
     63 HO4         -5.3440     0.7590     0.3050 ho         1 5HI       0.486000
     64 H11         -6.4900    -1.6720    -0.4020 h1         1 5HI       0.089700
     65 HO3         -7.6690     0.4660    -1.0030 ho         1 5HI       0.436000
     66 H35         -6.7530    -0.2730    -3.0810 hc         1 5HI       0.023700
     67 H35A        -6.4730    -2.0690    -2.8410 hc         1 5HI       0.023700
     68 C6           0.4220    -2.8010     1.4130 c3         1 5HI      -0.008400
     69 C3           3.2960    -1.3810     0.8340 c          1 5HI       0.544600
     70 H17          7.0010    -2.9170    -0.6620 ha         1 5HI       0.114000
     71 H20          7.6400    -3.1940    -3.0440 ha         1 5HI       0.108000
@<TRIPOS>BOND
     1     1     3 1   
     2     1     4 1   
     3     1    23 1   
     4     2     3 2   
     5     2    22 1   
     6     3    25 1   
     7     4     5 1   
     8     4    38 1   
     9     4    39 1   
    10     5    29 1   
    11     5    40 1   
    12     5    41 1   
    13     6    29 1   
    14     6    31 1   
    15     6    42 1   
    16     6    43 1   
    17     7    44 1   
    18     7    45 1   
    19     7    46 1   
    20     7    68 1   
    21     8    26 ar  
    22     8    28 ar  
    23     8    47 1   
    24     9    10 ar  
    25     9    19 ar  
    26     9    70 1   
    27    10    21 ar  
    28    10    71 1   
    29    11    12 ar  
    30    11    25 ar  
    31    11    48 1   
    32    12    26 ar  
    33    12    49 1   
    34    13    19 ar  
    35    13    20 ar  
    36    13    50 1   
    37    14    69 2   
    38    15    16 1   
    39    15    51 1   
    40    15    69 1   
    41    16    17 1   
    42    16    19 1   
    43    16    52 1   
    44    17    18 1   
    45    17    53 1   
    46    17    54 1   
    47    18    55 1   
    48    20    21 ar  
    49    20    56 1   
    50    21    57 1   
    51    22    23 2   
    52    22    69 1   
    53    23    68 1   
    54    24    58 1   
    55    24    59 1   
    56    24    60 1   
    57    24    68 1   
    58    25    28 ar  
    59    26    27 1   
    60    28    61 1   
    61    29    30 1   
    62    29    62 1   
    63    30    63 1   
    64    31    32 1   
    65    31    33 1   
    66    31    64 1   
    67    32    65 1   
    68    33    34 1   
    69    33    66 1   
    70    33    67 1   
    71    34    35 1   
    72    34    36 1   
    73    37    68 1   
@<TRIPOS>SUBSTRUCTURE
     1 5HI         1 TEMP              0 ****  ****    0 ROOT
