@<TRIPOS>MOLECULE
5HI
   71    73     1     0     0
SMALL
bcc


@<TRIPOS>ATOM
      1 N1          -0.1900    -0.2620     1.3610 na         1 5HI      -0.164900
      2 N3           1.7690     0.6930     1.0700 nc         1 5HI      -0.688000
      3 C5           0.4950     0.9190     1.2480 cd         1 5HI       0.465000
      4 C7          -1.6330    -0.4060     1.4520 c3         1 5HI       0.034300
      5 C8          -2.2860    -0.4710     0.0730 c3         1 5HI      -0.103400
      6 C10         -4.4090    -0.6130    -1.2550 c3         1 5HI      -0.154400
      7 C13         -0.6100    -3.3890     0.5770 c3         1 5HI      -0.086100
      8 C15          0.5060     4.5470     2.1360 ca         1 5HI      -0.178000
      9 C17          6.8240    -1.9110    -1.3350 ca         1 5HI      -0.107500
     10 C20          7.0710    -2.2260    -2.6650 ca         1 5HI      -0.133000
     11 C21         -1.3050     2.7240     1.0770 ca         1 5HI      -0.078000
     12 C24         -1.6850     4.0450     1.2650 ca         1 5HI      -0.178000
     13 C26          5.0560    -0.4400    -1.9980 ca         1 5HI      -0.107500
     14 O2           3.4890    -2.4420     0.7970 o          1 5HI      -0.625100
     15 N2           4.2490    -0.3180     0.7860 ns         1 5HI      -0.559900
     16 C1           5.6130    -0.6660     0.4730 c3         1 5HI       0.169000
     17 C14          6.5310     0.4700     0.9050 c3         1 5HI       0.127400
     18 O5           6.1770     1.6330     0.1970 oh         1 5HI      -0.592800
     19 C32          5.8170    -1.0160    -0.9870 ca         1 5HI      -0.088300
     20 C23          5.2950    -0.7560    -3.3290 ca         1 5HI      -0.133000
     21 C29          6.3050    -1.6470    -3.6680 ca         1 5HI      -0.130000
     22 C2           1.9290    -0.6580     1.0700 cc         1 5HI       0.223800
     23 C19          0.7170    -1.2860     1.2590 cd         1 5HI      -0.110900
     24 C12          0.1570    -3.0380     2.9610 c3         1 5HI      -0.086100
     25 C27         -0.0240     2.2860     1.4180 ca         1 5HI      -0.135500
     26 C30         -0.7740     4.9360     1.7920 ca         1 5HI       0.138900
     27 F1          -1.1380     6.2130     1.9750 f          1 5HI      -0.146900
     28 C18          0.8690     3.2250     1.9480 ca         1 5HI      -0.078000
     29 C9          -3.8020    -0.5340     0.1440 c3         1 5HI       0.160100
     30 O4          -4.2500     0.6000     0.8580 oh         1 5HI      -0.643800
     31 C11         -5.9210    -0.8300    -1.2640 c3         1 5HI       0.154100
     32 O3          -6.6000     0.2070    -0.5500 oh         1 5HI      -0.609800
     33 C35         -6.4740    -0.9680    -2.6700 c3         1 5HI      -0.241400
     34 C36         -7.9780    -1.3030    -2.7150 c          1 5HI       0.934600
     35 O6          -8.6620    -0.7160    -3.5760 o          1 5HI      -0.834800
     36 O7          -8.3810    -2.1610    -1.9040 o          1 5HI      -0.834800
     37 H6           1.3860    -3.2310     1.2430 hc         1 5HI       0.095700
     38 H7          -1.8550    -1.3070     2.0210 h1         1 5HI       0.074700
     39 H7A         -2.0210     0.4210     2.0430 h1         1 5HI       0.074700
     40 H8          -1.9830     0.3900    -0.5300 hc         1 5HI       0.055200
     41 H8A         -1.9190    -1.3500    -0.4580 hc         1 5HI       0.055200
     42 H10         -4.1540     0.2940    -1.8170 hc         1 5HI       0.045700
     43 H10A        -3.9460    -1.4480    -1.7880 hc         1 5HI       0.045700
     44 H13         -0.4460    -3.1430    -0.4720 hc         1 5HI       0.038033
     45 H13A        -0.5420    -4.4730     0.6760 hc         1 5HI       0.038033
     46 H13B        -1.6290    -3.1090     0.8400 hc         1 5HI       0.038033
     47 H15          1.2080     5.2590     2.5510 ha         1 5HI       0.151000
     48 H21         -2.0420     2.0630     0.6490 ha         1 5HI       0.156000
     49 H24         -2.6800     4.3710     0.9900 ha         1 5HI       0.151000
     50 H26          4.2570     0.2500    -1.7540 ha         1 5HI       0.132000
     51 HN2          3.9820     0.6560     0.8040 hn         1 5HI       0.350500
     52 H1           5.8980    -1.5340     1.0730 h1         1 5HI       0.072700
     53 H14          6.4290     0.6070     1.9890 h1         1 5HI       0.025700
     54 H14A         7.5670     0.1680     0.7100 h1         1 5HI       0.025700
     55 HO5          6.6900     2.3670     0.5440 ho         1 5HI       0.402000
     56 H23          4.6900    -0.3030    -4.1040 ha         1 5HI       0.126000
     57 H29          6.4890    -1.8940    -4.7060 ha         1 5HI       0.124000
     58 H12          0.0880    -4.1160     3.1150 hc         1 5HI       0.038033
     59 H12A         0.9530    -2.6560     3.5990 hc         1 5HI       0.038033
     60 H12B        -0.7830    -2.6000     3.2990 hc         1 5HI       0.038033
     61 H18          1.8670     2.9120     2.2240 ha         1 5HI       0.156000
     62 H9          -4.0820    -1.4570     0.6800 h1         1 5HI       0.031700
     63 HO4         -5.1990     0.6800     0.6820 ho         1 5HI       0.447000
     64 H11         -6.1470    -1.7460    -0.7120 h1         1 5HI       0.089700
     65 HO3         -6.6130     0.9940    -1.1070 ho         1 5HI       0.397000
     66 H35         -6.2640    -0.0580    -3.2430 hc         1 5HI       0.023700
     67 H35A        -5.9310    -1.7740    -3.1760 hc         1 5HI       0.023700
     68 C6           0.4420    -2.7460     1.4820 c3         1 5HI      -0.008400
     69 C3           3.2720    -1.2380     0.8750 c          1 5HI       0.611600
     70 H17          7.4190    -2.3760    -0.5560 ha         1 5HI       0.132000
     71 H20          7.8560    -2.9280    -2.9140 ha         1 5HI       0.126000
@<TRIPOS>BOND
     1     1     3 1   
     2     1     4 1   
     3     1    23 1   
     4     2     3 2   
     5     2    22 1   
     6     3    25 1   
     7     4     5 1   
     8     4    38 1   
     9     4    39 1   
    10     5    29 1   
    11     5    40 1   
    12     5    41 1   
    13     6    29 1   
    14     6    31 1   
    15     6    42 1   
    16     6    43 1   
    17     7    44 1   
    18     7    45 1   
    19     7    46 1   
    20     7    68 1   
    21     8    26 ar  
    22     8    28 ar  
    23     8    47 1   
    24     9    10 ar  
    25     9    19 ar  
    26     9    70 1   
    27    10    21 ar  
    28    10    71 1   
    29    11    12 ar  
    30    11    25 ar  
    31    11    48 1   
    32    12    26 ar  
    33    12    49 1   
    34    13    19 ar  
    35    13    20 ar  
    36    13    50 1   
    37    14    69 2   
    38    15    16 1   
    39    15    51 1   
    40    15    69 1   
    41    16    17 1   
    42    16    19 1   
    43    16    52 1   
    44    17    18 1   
    45    17    53 1   
    46    17    54 1   
    47    18    55 1   
    48    20    21 ar  
    49    20    56 1   
    50    21    57 1   
    51    22    23 2   
    52    22    69 1   
    53    23    68 1   
    54    24    58 1   
    55    24    59 1   
    56    24    60 1   
    57    24    68 1   
    58    25    28 ar  
    59    26    27 1   
    60    28    61 1   
    61    29    30 1   
    62    29    62 1   
    63    30    63 1   
    64    31    32 1   
    65    31    33 1   
    66    31    64 1   
    67    32    65 1   
    68    33    34 1   
    69    33    66 1   
    70    33    67 1   
    71    34    35 1   
    72    34    36 1   
    73    37    68 1   
@<TRIPOS>SUBSTRUCTURE
     1 5HI         1 TEMP              0 ****  ****    0 ROOT
