@<TRIPOS>MOLECULE
5HJ
   32    34     1     0     0
SMALL
abcg2


@<TRIPOS>ATOM
      1 C4         -10.7080     1.3930     0.5440 ca         1 5HJ      -0.145300
      2 C5         -11.3680     0.9390    -0.5970 ca         1 5HJ      -0.046000
      3 C6         -12.4620     1.6200    -1.1060 ca         1 5HJ      -0.172000
      4 C7          -9.5100     0.6480     1.0640 c5         1 5HJ       0.336000
      5 C8          -8.5140     0.7400     3.2800 c          1 5HJ       0.567000
      6 C9          -7.3430     1.2770     2.4810 c5         1 5HJ      -0.028400
      7 C10        -10.7460    -0.2090     3.0600 cx         1 5HJ       0.050700
      8 C11        -11.3120    -1.4370     2.4070 cx         1 5HJ      -0.126900
      9 C12        -10.6350    -1.5380     3.7450 cx         1 5HJ      -0.126900
     10 O1          -8.4790     0.6200     4.4990 o          1 5HJ      -0.532000
     11 N           -9.5620     0.3880     2.4990 n          1 5HJ      -0.396800
     12 S           -7.9490     1.6120     0.8030 ss         1 5HJ      -0.423000
     13 C3         -11.1760     2.5440     1.1710 ca         1 5HJ      -0.046000
     14 C2         -12.2780     3.2340     0.6820 ca         1 5HJ      -0.172000
     15 C1         -12.9240     2.7740    -0.4690 ca         1 5HJ       0.150100
     16 O          -14.0010     3.3810    -1.0340 os         1 5HJ      -0.348100
     17 C          -14.5250     4.5520    -0.4090 c3         1 5HJ       0.148900
     18 H1         -11.0230     0.0380    -1.0910 ha         1 5HJ       0.118500
     19 H2         -12.9740     1.2690    -1.9930 ha         1 5HJ       0.126000
     20 H3          -9.4180    -0.2940     0.5260 h2         1 5HJ       0.077700
     21 H4          -6.5480     0.5300     2.4830 h1         1 5HJ       0.100700
     22 H5          -6.9710     2.1900     2.9420 h1         1 5HJ       0.100700
     23 H6         -11.4520     0.5070     3.4630 h1         1 5HJ       0.091700
     24 H7         -12.3890    -1.5140     2.3570 hc         1 5HJ       0.079950
     25 H8         -10.7860    -1.8370     1.5510 hc         1 5HJ       0.079950
     26 H9         -11.2400    -1.6940     4.6280 hc         1 5HJ       0.079950
     27 H10         -9.6540    -1.9920     3.7740 hc         1 5HJ       0.079950
     28 H11        -10.6740     2.9120     2.0570 ha         1 5HJ       0.118500
     29 H12        -12.6200     4.1210     1.1940 ha         1 5HJ       0.126000
     30 H13        -15.3710     4.8610    -1.0180 h1         1 5HJ       0.044033
     31 H14        -14.8630     4.3370     0.6070 h1         1 5HJ       0.044033
     32 H15        -13.7800     5.3510    -0.3850 h1         1 5HJ       0.044033
@<TRIPOS>BOND
     1     1     2 ar  
     2     1     4 1   
     3     1    13 ar  
     4     2     3 ar  
     5     2    18 1   
     6     3    15 ar  
     7     3    19 1   
     8     4    11 1   
     9     4    12 1   
    10     4    20 1   
    11     5     6 1   
    12     5    10 2   
    13     5    11 1   
    14     6    12 1   
    15     6    21 1   
    16     6    22 1   
    17     7     8 1   
    18     7     9 1   
    19     7    11 1   
    20     7    23 1   
    21     8     9 1   
    22     8    24 1   
    23     8    25 1   
    24     9    26 1   
    25     9    27 1   
    26    13    14 ar  
    27    13    28 1   
    28    14    15 ar  
    29    14    29 1   
    30    15    16 1   
    31    16    17 1   
    32    17    30 1   
    33    17    31 1   
    34    17    32 1   
@<TRIPOS>SUBSTRUCTURE
     1 5HJ         1 TEMP              0 ****  ****    0 ROOT
