@<TRIPOS>MOLECULE
5HJ
   32    34     1     0     0
SMALL
No Charge or Current Charge


@<TRIPOS>ATOM
      1 C4         -10.5720     1.4820     0.5580 ca         1 5HJ      -0.145300
      2 C5         -11.2900     0.8820    -0.4950 ca         1 5HJ      -0.046000
      3 C6         -12.4750     1.4670    -0.9720 ca         1 5HJ      -0.172000
      4 C7          -9.2880     0.8330     1.0770 c5         1 5HJ       0.336000
      5 C8          -8.3810     0.6440     3.3680 c          1 5HJ       0.567000
      6 C9          -7.1660     1.1120     2.5530 c5         1 5HJ      -0.028400
      7 C10        -10.7390    -0.1010     2.9790 cx         1 5HJ       0.050700
      8 C11        -11.4680    -1.2160     2.2660 cx         1 5HJ      -0.126900
      9 C12        -10.8450    -1.4670     3.6160 cx         1 5HJ      -0.126900
     10 O1          -8.4240     0.4530     4.5770 o          1 5HJ      -0.532000
     11 N           -9.4720     0.4540     2.5010 n          1 5HJ      -0.396800
     12 S           -7.8400     1.9880     1.0680 ss         1 5HJ      -0.423000
     13 C3         -11.0590     2.6790     1.1220 ca         1 5HJ      -0.046000
     14 C2         -12.2460     3.2650     0.6460 ca         1 5HJ      -0.172000
     15 C1         -12.9600     2.6560    -0.4070 ca         1 5HJ       0.150100
     16 O          -14.1300     3.1820    -0.9170 os         1 5HJ      -0.348100
     17 C          -14.7110     4.3960    -0.4070 c3         1 5HJ       0.148900
     18 H1         -10.9300    -0.0410    -0.9450 ha         1 5HJ       0.118500
     19 H2         -13.0220     0.9950    -1.7840 ha         1 5HJ       0.126000
     20 H3          -9.0460    -0.0880     0.5320 h2         1 5HJ       0.077700
     21 H4          -6.5890     0.2280     2.2530 h1         1 5HJ       0.100700
     22 H5          -6.5430     1.7750     3.1650 h1         1 5HJ       0.100700
     23 H6         -11.3330     0.7100     3.4040 h1         1 5HJ       0.091700
     24 H7         -12.5510    -1.1500     2.2070 hc         1 5HJ       0.079950
     25 H8         -10.9920    -1.6690     1.4000 hc         1 5HJ       0.079950
     26 H9         -11.5080    -1.5730     4.4710 hc         1 5HJ       0.079950
     27 H10         -9.9490    -2.0800     3.6540 hc         1 5HJ       0.079950
     28 H11        -10.5180     3.1560     1.9370 ha         1 5HJ       0.118500
     29 H12        -12.5920     4.1860     1.1060 ha         1 5HJ       0.126000
     30 H13        -15.6340     4.6330    -0.9500 h1         1 5HJ       0.044033
     31 H14        -14.9600     4.2920     0.6570 h1         1 5HJ       0.044033
     32 H15        -14.0200     5.2400    -0.5260 h1         1 5HJ       0.044033
@<TRIPOS>BOND
     1     1     2 ar  
     2     1     4 1   
     3     1    13 ar  
     4     2     3 ar  
     5     2    18 1   
     6     3    15 ar  
     7     3    19 1   
     8     4    11 1   
     9     4    12 1   
    10     4    20 1   
    11     5     6 1   
    12     5    10 2   
    13     5    11 1   
    14     6    12 1   
    15     6    21 1   
    16     6    22 1   
    17     7     8 1   
    18     7     9 1   
    19     7    11 1   
    20     7    23 1   
    21     8     9 1   
    22     8    24 1   
    23     8    25 1   
    24     9    26 1   
    25     9    27 1   
    26    13    14 ar  
    27    13    28 1   
    28    14    15 ar  
    29    14    29 1   
    30    15    16 1   
    31    16    17 1   
    32    17    30 1   
    33    17    31 1   
    34    17    32 1   
@<TRIPOS>SUBSTRUCTURE
     1 5HJ         1 TEMP              0 ****  ****    0 ROOT
