@<TRIPOS>MOLECULE
5HK
   55    58     1     0     0
SMALL
No Charge or Current Charge


@<TRIPOS>ATOM
      1 O5           6.7760     3.2970    -0.2740 o          1 5HK      -0.587100
      2 C17          6.8390     2.1680    -0.7480 c          1 5HK       0.601100
      3 N3           7.9360     1.3260    -0.4410 n          1 5HK      -0.411800
      4 C19          9.0430     1.8280     0.4050 c3         1 5HK       0.084300
      5 C18          7.9320    -0.1200    -0.7620 c3         1 5HK       0.084300
      6 C16          5.7260     1.6640    -1.6900 c3         1 5HK      -0.111100
      7 C15          4.5350     1.1250    -0.9010 ca         1 5HK      -0.052300
      8 C14          4.2180    -0.2470    -0.9290 ca         1 5HK      -0.112000
      9 C20          3.7340     2.0000    -0.1440 ca         1 5HK      -0.088000
     10 C21          2.6420     1.5060     0.5880 ca         1 5HK      -0.131000
     11 C22          2.3270     0.1380     0.5590 ca         1 5HK       0.245000
     12 C13          3.1130    -0.7480    -0.2140 ca         1 5HK       0.061600
     13 N2           2.8570    -2.1390    -0.2710 ns         1 5HK      -0.396100
     14 C12          1.6950    -2.8660    -0.1360 c          1 5HK       0.593600
     15 O4           1.7580    -4.0850    -0.1990 o          1 5HK      -0.552000
     16 N4           1.2770    -0.3150     1.3390 na         1 5HK      -0.933000
     17 C23          0.2220    -0.9430     0.7110 ca         1 5HK       0.316000
     18 C11          0.3710    -2.1670     0.0330 ca         1 5HK      -0.163600
     19 C10         -0.7830    -2.7940    -0.4870 ca         1 5HK      -0.036000
     20 C9          -2.0460    -2.1940    -0.3630 ca         1 5HK      -0.133000
     21 C24         -1.0450    -0.3530     0.8400 ca         1 5HK      -0.162000
     22 C8          -2.2060    -0.9550     0.2990 cp         1 5HK      -0.003000
     23 C4          -3.5530    -0.3130     0.4370 cp         1 5HK       0.047000
     24 C5          -4.5160    -0.4050    -0.5970 ca         1 5HK      -0.212000
     25 C6          -5.7890     0.1970    -0.4770 ca         1 5HK       0.214100
     26 O3          -6.7420     0.0800    -1.4730 os         1 5HK      -0.307100
     27 C7          -6.5030    -0.6330    -2.6990 c3         1 5HK       0.146900
     28 C3          -3.9050     0.3990     1.6070 ca         1 5HK      -0.151000
     29 C2          -5.1650     1.0010     1.7400 ca         1 5HK      -0.015000
     30 C1          -6.1090     0.9090     0.6960 ca         1 5HK      -0.220200
     31 N1          -7.4350     1.5600     0.8550 no         1 5HK       0.703200
     32 O1          -7.9520     1.5300     1.9800 o          1 5HK      -0.394500
     33 O2          -7.8540     2.2650    -0.0720 o          1 5HK      -0.394500
     34 H191         8.7110     1.8840     1.4500 h1         1 5HK       0.041867
     35 H193         9.9110     1.1600     0.3410 h1         1 5HK       0.041867
     36 H192         9.3490     2.8270     0.0700 h1         1 5HK       0.041867
     37 H182         8.0440    -0.2630    -1.8440 h1         1 5HK       0.041867
     38 H181         8.7600    -0.6310    -0.2540 h1         1 5HK       0.041867
     39 H183         6.9910    -0.5740    -0.4270 h1         1 5HK       0.041867
     40 H9           5.3870     2.5050    -2.3050 hc         1 5HK       0.066200
     41 H8           6.1070     0.8780    -2.3490 hc         1 5HK       0.066200
     42 H7           4.8250    -0.9300    -1.5190 ha         1 5HK       0.120000
     43 H10          3.9620     3.0640    -0.1150 ha         1 5HK       0.117000
     44 H11          2.0410     2.1880     1.1830 ha         1 5HK       0.116000
     45 H6           3.6700    -2.7160    -0.4430 hn         1 5HK       0.325500
     46 H12          1.2080    -0.0510     2.3180 hn         1 5HK       0.462000
     47 H5          -0.7020    -3.7490    -1.0020 ha         1 5HK       0.138000
     48 H4          -2.9130    -2.7060    -0.7740 ha         1 5HK       0.122000
     49 H13         -1.1290     0.5950     1.3620 ha         1 5HK       0.118000
     50 H3          -4.2480    -0.9450    -1.4990 ha         1 5HK       0.131000
     51 H71         -5.6670    -0.1880    -3.2530 h1         1 5HK       0.051367
     52 H72         -6.2740    -1.6880    -2.5000 h1         1 5HK       0.051367
     53 H73         -7.3930    -0.5950    -3.3390 h1         1 5HK       0.051367
     54 H2          -3.1980     0.4760     2.4280 ha         1 5HK       0.132000
     55 H1          -5.4030     1.5430     2.6550 ha         1 5HK       0.150000
@<TRIPOS>BOND
     1     1     2 2   
     2     2     3 1   
     3     2     6 1   
     4     3     4 1   
     5     3     5 1   
     6     4    34 1   
     7     4    35 1   
     8     4    36 1   
     9     5    37 1   
    10     5    38 1   
    11     5    39 1   
    12     6     7 1   
    13     6    40 1   
    14     6    41 1   
    15     7     8 ar  
    16     7     9 ar  
    17     8    12 ar  
    18     8    42 1   
    19     9    10 ar  
    20     9    43 1   
    21    10    11 ar  
    22    10    44 1   
    23    11    12 ar  
    24    11    16 1   
    25    12    13 1   
    26    13    14 1   
    27    13    45 1   
    28    14    15 2   
    29    14    18 1   
    30    16    17 1   
    31    16    46 1   
    32    17    18 ar  
    33    17    21 ar  
    34    18    19 ar  
    35    19    20 ar  
    36    19    47 1   
    37    20    22 ar  
    38    20    48 1   
    39    21    22 ar  
    40    21    49 1   
    41    22    23 1   
    42    23    24 ar  
    43    23    28 ar  
    44    24    25 ar  
    45    24    50 1   
    46    25    26 1   
    47    25    30 ar  
    48    26    27 1   
    49    27    51 1   
    50    27    52 1   
    51    27    53 1   
    52    28    29 ar  
    53    28    54 1   
    54    29    30 ar  
    55    29    55 1   
    56    30    31 1   
    57    31    32 1   
    58    31    33 1   
@<TRIPOS>SUBSTRUCTURE
     1 5HK         1 TEMP              0 ****  ****    0 ROOT
