@<TRIPOS>MOLECULE
5HK
   55    58     1     0     0
SMALL
bcc


@<TRIPOS>ATOM
      1 O5           6.9210     0.7820     0.8620 o          1 5HK      -0.587100
      2 C17          7.0260     0.9450    -0.3450 c          1 5HK       0.668100
      3 N3           8.2090     1.1830    -0.9500 n          1 5HK      -0.478800
      4 C19          9.4060     1.3730    -0.1590 c3         1 5HK       0.084300
      5 C18          8.3330     1.5160    -2.3550 c3         1 5HK       0.084300
      6 C16          5.8030     0.8730    -1.2530 c3         1 5HK      -0.111100
      7 C15          4.5390     0.6510    -0.4810 ca         1 5HK      -0.052300
      8 C14          4.1030    -0.6340    -0.1900 ca         1 5HK      -0.130000
      9 C20          3.7740     1.7240    -0.0390 ca         1 5HK      -0.106000
     10 C21          2.5980     1.5110     0.6600 ca         1 5HK      -0.149000
     11 C22          2.1740     0.2220     0.9660 ca         1 5HK       0.106600
     12 C13          2.9390    -0.8590     0.5360 ca         1 5HK       0.061600
     13 N2           2.6110    -2.1750     0.8930 ns         1 5HK      -0.463100
     14 C12          1.4140    -2.8090     0.8580 c          1 5HK       0.736100
     15 O4           1.3610    -4.0220     0.9890 o          1 5HK      -0.627500
     16 N4           1.0060     0.0060     1.7160 na         1 5HK      -0.601000
     17 C23         -0.0330    -0.7270     1.1460 ca         1 5HK       0.177600
     18 C11          0.1640    -2.0250     0.6630 ca         1 5HK      -0.163600
     19 C10         -0.9160    -2.7000     0.0940 ca         1 5HK      -0.054000
     20 C9          -2.1640    -2.1200    -0.0010 ca         1 5HK      -0.151000
     21 C24         -1.3060    -0.1600     1.0810 ca         1 5HK      -0.180000
     22 C8          -2.3760    -0.8410     0.5160 cp         1 5HK      -0.003000
     23 C4          -3.7070    -0.2070     0.4480 cp         1 5HK       0.047000
     24 C5          -4.5070    -0.4030    -0.6730 ca         1 5HK      -0.230000
     25 C6          -5.7660     0.1860    -0.7850 ca         1 5HK       0.214100
     26 O3          -6.5720     0.0050    -1.8250 os         1 5HK      -0.283900
     27 C7          -6.1800    -0.8900    -2.8560 c3         1 5HK       0.123700
     28 C3          -4.1740     0.5850     1.4970 ca         1 5HK      -0.169000
     29 C2          -5.4230     1.1630     1.4160 ca         1 5HK      -0.033000
     30 C1          -6.2070     0.9840     0.2850 ca         1 5HK      -0.220200
     31 N1          -7.4930     1.6470     0.2500 no         1 5HK       0.323200
     32 O1          -8.0750     1.7930     1.3020 o          1 5HK      -0.204500
     33 O2          -7.9120     2.0390    -0.8120 o          1 5HK      -0.204500
     34 H191         9.2780     0.9580     0.8360 h1         1 5HK       0.041867
     35 H193        10.2450     0.8710    -0.6400 h1         1 5HK       0.041867
     36 H192         9.6550     2.4330    -0.0640 h1         1 5HK       0.041867
     37 H182         8.2080     2.5870    -2.5350 h1         1 5HK       0.041867
     38 H181         9.3260     1.2290    -2.6980 h1         1 5HK       0.041867
     39 H183         7.6150     0.9770    -2.9660 h1         1 5HK       0.041867
     40 H9           5.7290     1.7980    -1.8320 hc         1 5HK       0.066200
     41 H8           5.9470     0.0740    -1.9860 hc         1 5HK       0.066200
     42 H7           4.6830    -1.4870    -0.5240 ha         1 5HK       0.138000
     43 H10          4.0880     2.7380    -0.2540 ha         1 5HK       0.135000
     44 H11          2.0020     2.3550     0.9870 ha         1 5HK       0.134000
     45 H6           3.3970    -2.8040     0.9850 hn         1 5HK       0.325500
     46 H12          0.6800     0.8510     2.1620 hn         1 5HK       0.406800
     47 H5          -0.7740    -3.7080    -0.2700 ha         1 5HK       0.156000
     48 H4          -2.9800    -2.6810    -0.4370 ha         1 5HK       0.140000
     49 H13         -1.4430     0.8500     1.4490 ha         1 5HK       0.136000
     50 H3          -4.1270    -1.0050    -1.4860 ha         1 5HK       0.149000
     51 H71         -5.2840    -0.5420    -3.3730 h1         1 5HK       0.051367
     52 H72         -6.0070    -1.8970    -2.4710 h1         1 5HK       0.051367
     53 H73         -7.0060    -0.9160    -3.5590 h1         1 5HK       0.051367
     54 H2          -3.5760     0.7320     2.3860 ha         1 5HK       0.150000
     55 H1          -5.7850     1.7710     2.2330 ha         1 5HK       0.168000
@<TRIPOS>BOND
     1     1     2 2   
     2     2     3 1   
     3     2     6 1   
     4     3     4 1   
     5     3     5 1   
     6     4    34 1   
     7     4    35 1   
     8     4    36 1   
     9     5    37 1   
    10     5    38 1   
    11     5    39 1   
    12     6     7 1   
    13     6    40 1   
    14     6    41 1   
    15     7     8 ar  
    16     7     9 ar  
    17     8    12 ar  
    18     8    42 1   
    19     9    10 ar  
    20     9    43 1   
    21    10    11 ar  
    22    10    44 1   
    23    11    12 ar  
    24    11    16 1   
    25    12    13 1   
    26    13    14 1   
    27    13    45 1   
    28    14    15 2   
    29    14    18 1   
    30    16    17 1   
    31    16    46 1   
    32    17    18 ar  
    33    17    21 ar  
    34    18    19 ar  
    35    19    20 ar  
    36    19    47 1   
    37    20    22 ar  
    38    20    48 1   
    39    21    22 ar  
    40    21    49 1   
    41    22    23 1   
    42    23    24 ar  
    43    23    28 ar  
    44    24    25 ar  
    45    24    50 1   
    46    25    26 1   
    47    25    30 ar  
    48    26    27 1   
    49    27    51 1   
    50    27    52 1   
    51    27    53 1   
    52    28    29 ar  
    53    28    54 1   
    54    29    30 ar  
    55    29    55 1   
    56    30    31 1   
    57    31    32 1   
    58    31    33 1   
@<TRIPOS>SUBSTRUCTURE
     1 5HK         1 TEMP              0 ****  ****    0 ROOT
