@<TRIPOS>MOLECULE
5HL
   36    38     1     0     0
SMALL
abcg2


@<TRIPOS>ATOM
      1 C4           3.5720    -2.1400    -0.2650 ca         1 5HL      -0.147000
      2 C5           2.2370    -2.3680    -0.5070 ca         1 5HL      -0.053000
      3 C6           1.3290    -1.3020    -0.4900 ca         1 5HL      -0.134800
      4 N1           0.8700     1.0150    -0.2190 ns         1 5HL      -0.378100
      5 C7          -0.0720    -1.4810    -0.7280 cc         1 5HL      -0.088200
      6 C8          -0.9510    -0.4580    -0.7060 cd         1 5HL      -0.184400
      7 C9          -2.4240    -0.6590    -0.8860 c3         1 5HL       0.221000
      8 C10         -4.5150    -0.4900     0.2970 cx         1 5HL       0.094500
      9 C11         -5.2500     0.1710     1.4180 cx         1 5HL      -0.122900
     10 C12         -5.1060     0.8700     0.0980 cx         1 5HL      -0.122900
     11 C13         -0.4770     0.9010    -0.4530 c          1 5HL       0.570200
     12 C14          1.7900    -0.0050    -0.2210 ca         1 5HL       0.111600
     13 O           -1.1930     1.8940    -0.4570 o          1 5HL      -0.541000
     14 N           -3.0930    -0.5630     0.4000 n7         1 5HL      -0.839400
     15 C2           3.1510     0.2400     0.0320 ca         1 5HL      -0.131300
     16 C1           3.6620     1.6140     0.3720 c3         1 5HL      -0.031100
     17 C            3.4230     1.9860     1.8360 c3         1 5HL      -0.092100
     18 C3           4.0130    -0.8420     0.0010 ca         1 5HL      -0.059000
     19 H1           4.2800    -2.9570    -0.2790 ha         1 5HL       0.119000
     20 H2           1.8740    -3.3660    -0.7150 ha         1 5HL       0.116000
     21 H3           1.1960     1.9580    -0.0590 hn         1 5HL       0.328500
     22 H4          -0.4270    -2.4860    -0.9300 ha         1 5HL       0.183000
     23 H5          -2.8280     0.1190    -1.5360 h1         1 5HL       0.043700
     24 H6          -2.6000    -1.6180    -1.3930 h1         1 5HL       0.043700
     25 H7          -5.0310    -1.3130    -0.2010 h1         1 5HL       0.049700
     26 H8          -6.2230    -0.2160     1.6920 hc         1 5HL       0.076950
     27 H9          -4.6610     0.5380     2.2480 hc         1 5HL       0.076950
     28 H10         -4.4090     1.6960     0.0410 hc         1 5HL       0.076950
     29 H11         -5.9800     0.9660    -0.5340 hc         1 5HL       0.076950
     30 H12         -2.8270    -1.3530     0.9750 hn         1 5HL       0.413000
     31 H14          4.7330     1.6480     0.1660 hc         1 5HL       0.047200
     32 H15          3.2170     2.3710    -0.2810 hc         1 5HL       0.047200
     33 H16          3.8080     2.9840     2.0470 hc         1 5HL       0.038700
     34 H17          2.3640     1.9800     2.0940 hc         1 5HL       0.038700
     35 H18          3.9280     1.2840     2.5000 hc         1 5HL       0.038700
     36 H19          5.0660    -0.6700     0.1890 ha         1 5HL       0.114000
@<TRIPOS>BOND
     1     1     2 ar  
     2     1    18 ar  
     3     1    19 1   
     4     2     3 ar  
     5     2    20 1   
     6     3     5 1   
     7     3    12 ar  
     8     4    11 1   
     9     4    12 1   
    10     4    21 1   
    11     5     6 2   
    12     5    22 1   
    13     6     7 1   
    14     6    11 1   
    15     7    14 1   
    16     7    23 1   
    17     7    24 1   
    18     8     9 1   
    19     8    10 1   
    20     8    14 1   
    21     8    25 1   
    22     9    10 1   
    23     9    26 1   
    24     9    27 1   
    25    10    28 1   
    26    10    29 1   
    27    11    13 2   
    28    12    15 ar  
    29    14    30 1   
    30    15    16 1   
    31    15    18 ar  
    32    16    17 1   
    33    16    31 1   
    34    16    32 1   
    35    17    33 1   
    36    17    34 1   
    37    17    35 1   
    38    18    36 1   
@<TRIPOS>SUBSTRUCTURE
     1 5HL         1 TEMP              0 ****  ****    0 ROOT
