@<TRIPOS>MOLECULE
5HL
   36    38     1     0     0
SMALL
No Charge or Current Charge


@<TRIPOS>ATOM
      1 C4           3.4210    -2.2570     0.0360 ca         1 5HL      -0.147000
      2 C5           2.0440    -2.3720    -0.2110 ca         1 5HL      -0.053000
      3 C6           1.2490    -1.2160    -0.3210 ca         1 5HL      -0.134800
      4 N1           1.0110     1.1700    -0.2980 ns         1 5HL      -0.378100
      5 C7          -0.1880    -1.3390    -0.5760 cc         1 5HL      -0.088200
      6 C8          -0.9470    -0.1780    -0.6730 cd         1 5HL      -0.184400
      7 C9          -2.4320    -0.2100    -0.9360 c3         1 5HL       0.221000
      8 C10         -4.6040    -0.6360     0.1390 cx         1 5HL       0.094500
      9 C11         -5.4380    -0.4010     1.3730 cx         1 5HL      -0.122900
     10 C12         -5.3870     0.6450     0.2850 cx         1 5HL      -0.122900
     11 C13         -0.3380     1.1810    -0.5320 c          1 5HL       0.570200
     12 C14          1.8440     0.0490    -0.1830 ca         1 5HL       0.111600
     13 O           -0.9450     2.2390    -0.6170 o          1 5HL      -0.541000
     14 N           -3.1690    -0.5580     0.2910 n7         1 5HL      -0.839400
     15 C2           3.2300     0.1760     0.0630 ca         1 5HL      -0.131300
     16 C1           3.9000     1.5410     0.2190 c3         1 5HL      -0.031100
     17 C            3.7270     2.1200     1.6360 c3         1 5HL      -0.092100
     18 C3           4.0120    -0.9910     0.1730 ca         1 5HL      -0.059000
     19 H1           4.0330    -3.1530     0.1210 ha         1 5HL       0.119000
     20 H2           1.5960    -3.3580    -0.3160 ha         1 5HL       0.116000
     21 H3           1.4460     2.0760    -0.1960 hn         1 5HL       0.328500
     22 H4          -0.6620    -2.3110    -0.6890 ha         1 5HL       0.183000
     23 H5          -2.7750     0.7550    -1.3320 h1         1 5HL       0.043700
     24 H6          -2.6260    -0.9580    -1.7180 h1         1 5HL       0.043700
     25 H7          -4.9730    -1.3700    -0.5800 h1         1 5HL       0.049700
     26 H8          -6.3540    -0.9780     1.4780 hc         1 5HL       0.076950
     27 H9          -4.9250    -0.1860     2.3060 hc         1 5HL       0.076950
     28 H10         -4.8370     1.5600     0.4880 hc         1 5HL       0.076950
     29 H11         -6.2670     0.7710    -0.3400 hc         1 5HL       0.076950
     30 H12         -2.8140    -1.4630     0.6240 hn         1 5HL       0.413000
     31 H14          4.9730     1.4640     0.0040 hc         1 5HL       0.047200
     32 H15          3.5040     2.2540    -0.5150 hc         1 5HL       0.047200
     33 H16          4.2260     3.0930     1.7160 hc         1 5HL       0.038700
     34 H17          2.6660     2.2570     1.8780 hc         1 5HL       0.038700
     35 H18          4.1660     1.4470     2.3830 hc         1 5HL       0.038700
     36 H19          5.0810    -0.9170     0.3660 ha         1 5HL       0.114000
@<TRIPOS>BOND
     1     1     2 ar  
     2     1    18 ar  
     3     1    19 1   
     4     2     3 ar  
     5     2    20 1   
     6     3     5 1   
     7     3    12 ar  
     8     4    11 1   
     9     4    12 1   
    10     4    21 1   
    11     5     6 2   
    12     5    22 1   
    13     6     7 1   
    14     6    11 1   
    15     7    14 1   
    16     7    23 1   
    17     7    24 1   
    18     8     9 1   
    19     8    10 1   
    20     8    14 1   
    21     8    25 1   
    22     9    10 1   
    23     9    26 1   
    24     9    27 1   
    25    10    28 1   
    26    10    29 1   
    27    11    13 2   
    28    12    15 ar  
    29    14    30 1   
    30    15    16 1   
    31    15    18 ar  
    32    16    17 1   
    33    16    31 1   
    34    16    32 1   
    35    17    33 1   
    36    17    34 1   
    37    17    35 1   
    38    18    36 1   
@<TRIPOS>SUBSTRUCTURE
     1 5HL         1 TEMP              0 ****  ****    0 ROOT
