@<TRIPOS>MOLECULE
5HN
   14    14     1     0     0
SMALL
bcc


@<TRIPOS>ATOM
      1 OAA          2.8290    -0.5050     0.0890 o          1 5HN      -0.821300
      2 CAH          1.9550     0.3770     0.0060 c          1 5HN       0.928200
      3 OAB          2.1300     1.6070    -0.0700 o          1 5HN      -0.821300
      4 CAJ          0.5090    -0.1030    -0.0050 ca         1 5HN      -0.210900
      5 CAF         -0.5420     0.7990    -0.1100 ca         1 5HN      -0.164000
      6 CAI         -1.8460     0.3260    -0.1220 ca         1 5HN      -0.023200
      7 OAC         -2.9290     1.1210    -0.2250 oh         1 5HN      -0.516100
      8 CAD         -2.0500    -1.0490    -0.0240 ca         1 5HN       0.338200
      9 NAG         -1.0530    -1.9150     0.0780 nb         1 5HN      -0.684000
     10 CAE          0.1930    -1.4540     0.0860 ca         1 5HN       0.378200
     11 H2          -0.3380     1.8610    -0.1840 ha         1 5HN       0.149000
     12 H3          -2.6620     2.0460    -0.2690 ho         1 5HN       0.414000
     13 H4          -3.0600    -1.4480    -0.0290 h4         1 5HN       0.000100
     14 H5           0.9820    -2.1910     0.1700 h4         1 5HN       0.033100
@<TRIPOS>BOND
     1     1     2 1   
     2     2     3 1   
     3     2     4 1   
     4     4     5 ar  
     5     4    10 ar  
     6     5     6 ar  
     7     5    11 1   
     8     6     7 1   
     9     6     8 ar  
    10     7    12 1   
    11     8     9 ar  
    12     8    13 1   
    13     9    10 ar  
    14    10    14 1   
@<TRIPOS>SUBSTRUCTURE
     1 5HN         1 TEMP              0 ****  ****    0 ROOT
