@<TRIPOS>MOLECULE
5HN
   14    14     1     0     0
SMALL
No Charge or Current Charge


@<TRIPOS>ATOM
      1 OAA          2.8310    -0.4700     0.1000 o          1 5HN      -0.716000
      2 CAH          1.9480     0.3700     0.0070 c          1 5HN       0.717600
      3 OAB          2.1780     1.5690    -0.0750 o          1 5HN      -0.716000
      4 CAJ          0.5110    -0.0890    -0.0080 ca         1 5HN      -0.145600
      5 CAF         -0.5680     0.8240    -0.1130 ca         1 5HN      -0.146000
      6 CAI         -1.8790     0.3200    -0.1200 ca         1 5HN       0.042100
      7 OAC         -2.9460     1.1750    -0.2210 oh         1 5HN      -0.555100
      8 CAD         -2.0690    -1.0790    -0.0220 ca         1 5HN       0.272900
      9 NAG         -1.0460    -1.9620     0.0790 nb         1 5HN      -0.684000
     10 CAE          0.2160    -1.4650     0.0850 ca         1 5HN       0.312900
     11 H2          -0.3850     1.8940    -0.1870 ha         1 5HN       0.131000
     12 H3          -2.6100     2.0970    -0.2780 ho         1 5HN       0.453000
     13 H4          -3.0720    -1.5050    -0.0250 h4         1 5HN       0.000100
     14 H5           1.0100    -2.2080     0.1680 h4         1 5HN       0.033100
@<TRIPOS>BOND
     1     1     2 1   
     2     2     3 1   
     3     2     4 1   
     4     4     5 ar  
     5     4    10 ar  
     6     5     6 ar  
     7     5    11 1   
     8     6     7 1   
     9     6     8 ar  
    10     7    12 1   
    11     8     9 ar  
    12     8    13 1   
    13     9    10 ar  
    14    10    14 1   
@<TRIPOS>SUBSTRUCTURE
     1 5HN         1 TEMP              0 ****  ****    0 ROOT
