@<TRIPOS>MOLECULE
5HO
   29    30     1     0     0
SMALL
bcc


@<TRIPOS>ATOM
      1 C4           4.1150     0.0830    -0.1650 ca         1 5HO      -0.134900
      2 C5           3.2060    -0.9330     0.0670 ca         1 5HO       0.453200
      3 C6          -2.2790     0.6360     0.3040 c          1 5HO       0.587100
      4 N1           1.8980    -0.7230     0.1280 nb         1 5HO      -0.678000
      5 C7          -4.6850     0.5830     0.2720 c5         1 5HO       0.100000
      6 C8          -5.6890    -0.5600     0.2880 c5         1 5HO      -0.096900
      7 N2          -3.3860    -0.0960     0.2380 n          1 5HO      -0.449800
      8 C9          -4.9730    -1.6570    -0.4890 c5         1 5HO      -0.096900
      9 C10         -3.5310    -1.5350    -0.0120 c5         1 5HO       0.100000
     10 O1          -2.2830     1.8620     0.3610 o          1 5HO      -0.621100
     11 C           -0.9260    -0.0980     0.3530 c          1 5HO       0.605100
     12 O           -0.8140    -1.2540     0.6890 o          1 5HO      -0.521100
     13 C1           1.4450     0.5060    -0.0360 ca         1 5HO       0.556200
     14 CL           5.8040    -0.2600    -0.2320 cl         1 5HO      -0.090400
     15 C3           3.6450     1.3780    -0.3430 ca         1 5HO      -0.057000
     16 C2           2.2870     1.5970    -0.2780 ca         1 5HO      -0.284300
     17 H1           3.5440    -1.9530     0.2070 h4         1 5HO       0.038100
     18 H3          -4.7580     1.2300     1.1450 h1         1 5HO       0.063200
     19 H4          -5.8790    -0.8840     1.3130 hc         1 5HO       0.057200
     20 H5          -6.6420    -0.2690    -0.1520 hc         1 5HO       0.057200
     21 H6          -5.3750    -2.6530    -0.3030 hc         1 5HO       0.057200
     22 H7          -5.0340    -1.4650    -1.5620 hc         1 5HO       0.057200
     23 H8          -2.8190    -1.8870    -0.7540 h1         1 5HO       0.063200
     24 H9          -3.3770    -2.1010     0.9080 h1         1 5HO       0.063200
     25 H11          4.3250     2.1980    -0.5280 ha         1 5HO       0.153000
     26 H12          1.8860     2.5930    -0.4110 ha         1 5HO       0.149000
     27 N            0.0780     0.7470     0.0160 ns         1 5HO      -0.545400
     28 H2          -4.8020     1.2090    -0.6160 h1         1 5HO       0.063200
     29 H10         -0.2130     1.7000    -0.1590 hn         1 5HO       0.352500
@<TRIPOS>BOND
     1     1     2 ar  
     2     1    14 1   
     3     1    15 ar  
     4     2     4 ar  
     5     2    17 1   
     6     3     7 1   
     7     3    10 2   
     8     3    11 1   
     9     4    13 ar  
    10     5     6 1   
    11     5     7 1   
    12     5    18 1   
    13     5    28 1   
    14     6     8 1   
    15     6    19 1   
    16     6    20 1   
    17     7     9 1   
    18     8     9 1   
    19     8    21 1   
    20     8    22 1   
    21     9    23 1   
    22     9    24 1   
    23    11    12 2   
    24    11    27 1   
    25    13    16 ar  
    26    13    27 1   
    27    15    16 ar  
    28    15    25 1   
    29    16    26 1   
    30    27    29 1   
@<TRIPOS>SUBSTRUCTURE
     1 5HO         1 TEMP              0 ****  ****    0 ROOT
