@<TRIPOS>MOLECULE
5HO
   29    30     1     0     0
SMALL
No Charge or Current Charge


@<TRIPOS>ATOM
      1 C4           4.1080    -0.0660    -0.3610 ca         1 5HO       0.022000
      2 C5           3.0890    -1.0370    -0.2660 ca         1 5HO       0.387900
      3 C6          -2.3710     0.8430     0.5410 c          1 5HO       0.520100
      4 N1           1.7790    -0.7260    -0.0980 nb         1 5HO      -0.678000
      5 C7          -4.8590     0.5760     0.0970 c5         1 5HO       0.100000
      6 C8          -5.7240    -0.7080     0.1830 c5         1 5HO      -0.096900
      7 N2          -3.4970     0.0270     0.2740 n          1 5HO      -0.382800
      8 C9          -4.8160    -1.7450    -0.5250 c5         1 5HO      -0.096900
      9 C10         -3.4340    -1.4420     0.1100 c5         1 5HO       0.100000
     10 O1          -2.5040     2.0660     0.6090 o          1 5HO      -0.621100
     11 C           -0.9290     0.1640     0.7360 c          1 5HO       0.538100
     12 O           -0.7550    -0.8580     1.4010 o          1 5HO      -0.521100
     13 C1           1.4570     0.5800     0.0020 ca         1 5HO       0.490900
     14 Cl           5.7910    -0.5370    -0.5840 cl         1 5HO      -0.182000
     15 C3           3.7570     1.2920    -0.2860 ca         1 5HO      -0.039000
     16 C2           2.4000     1.6150    -0.1100 ca         1 5HO      -0.201000
     17 H1           3.3300    -2.0970    -0.3320 h4         1 5HO       0.038100
     18 H3          -5.1240     1.3020     0.8770 h1         1 5HO       0.063200
     19 H4          -5.9080    -0.9910     1.2260 hc         1 5HO       0.057200
     20 H5          -6.6990    -0.5910    -0.3040 hc         1 5HO       0.057200
     21 H6          -5.1370    -2.7790    -0.3570 hc         1 5HO       0.057200
     22 H7          -4.7970    -1.5780    -1.6090 hc         1 5HO       0.057200
     23 H8          -2.6090    -1.7610    -0.5400 h1         1 5HO       0.063200
     24 H9          -3.3250    -1.9360     1.0860 h1         1 5HO       0.063200
     25 H11          4.5140     2.0690    -0.3660 ha         1 5HO       0.135000
     26 H12          2.0820     2.6530    -0.0560 ha         1 5HO       0.131000
     27 N            0.0910     0.8650     0.1140 ns         1 5HO      -0.311900
     28 H2          -4.9550     1.0640    -0.8820 h1         1 5HO       0.063200
     29 H10         -0.1900     1.7300    -0.3290 hn         1 5HO       0.186000
@<TRIPOS>BOND
     1     1     2 ar  
     2     1    14 1   
     3     1    15 ar  
     4     2     4 ar  
     5     2    17 1   
     6     3     7 1   
     7     3    10 2   
     8     3    11 1   
     9     4    13 ar  
    10     5     6 1   
    11     5     7 1   
    12     5    18 1   
    13     5    28 1   
    14     6     8 1   
    15     6    19 1   
    16     6    20 1   
    17     7     9 1   
    18     8     9 1   
    19     8    21 1   
    20     8    22 1   
    21     9    23 1   
    22     9    24 1   
    23    11    12 2   
    24    11    27 1   
    25    13    16 ar  
    26    13    27 1   
    27    15    16 ar  
    28    15    25 1   
    29    16    26 1   
    30    27    29 1   
@<TRIPOS>SUBSTRUCTURE
     1 5HO         1 TEMP              0 ****  ****    0 ROOT
