@<TRIPOS>MOLECULE
5HP
   15    15     1     0     0
SMALL
bcc


@<TRIPOS>ATOM
      1 N            0.7480     0.3800    -0.6210 ns         1 5HP      -0.532900
      2 CA          -0.2360     0.5160     0.4320 c5         1 5HP      -0.036300
      3 C            0.2550     0.0490     1.8110 c          1 5HP       0.930600
      4 O            1.4670    -0.2040     1.9360 o          1 5HP      -0.827300
      5 CB          -1.4120    -0.2980    -0.1260 c5         1 5HP      -0.070400
      6 CG          -1.2300    -0.2020    -1.6380 c5         1 5HP      -0.178400
      7 CD           0.2640    -0.0020    -1.8100 c          1 5HP       0.689500
      8 OD           0.9050    -0.1490    -2.8420 o          1 5HP      -0.703500
      9 OXT         -0.6280    -0.0080     2.6870 o          1 5HP      -0.827300
     10 H            1.7210     0.5960    -0.4720 hn         1 5HP       0.332500
     11 HA          -0.5360     1.5690     0.5280 h1         1 5HP       0.028700
     12 HB1         -1.3280    -1.3400     0.1910 hc         1 5HP       0.050200
     13 HB2         -2.3720     0.0760     0.2210 hc         1 5HP       0.050200
     14 HG1         -1.5780    -1.0760    -2.1880 hc         1 5HP       0.048200
     15 HG2         -1.7420     0.6710    -2.0540 hc         1 5HP       0.048200
@<TRIPOS>BOND
     1     1     2 1   
     2     1     7 1   
     3     1    10 1   
     4     2     3 1   
     5     2     5 1   
     6     2    11 1   
     7     3     4 1   
     8     3     9 1   
     9     5     6 1   
    10     5    12 1   
    11     5    13 1   
    12     6     7 1   
    13     6    14 1   
    14     6    15 1   
    15     7     8 2   
@<TRIPOS>SUBSTRUCTURE
     1 5HP         1 TEMP              0 ****  ****    0 ROOT
