@<TRIPOS>MOLECULE
5HP
   15    15     1     0     0
SMALL
No Charge or Current Charge


@<TRIPOS>ATOM
      1 N            0.7290     0.4570    -0.6500 ns         1 5HP      -0.465900
      2 CA          -0.3000     0.6100     0.4060 c5         1 5HP      -0.036300
      3 C            0.2870     0.1160     1.7850 c          1 5HP       0.720000
      4 O            1.4690     0.3200     2.0370 o          1 5HP      -0.722000
      5 CB          -1.4360    -0.3200    -0.1410 c5         1 5HP      -0.070400
      6 CG          -1.2620    -0.1020    -1.6630 c5         1 5HP      -0.178400
      7 CD           0.2560    -0.0780    -1.8160 c          1 5HP       0.547000
      8 OD           0.9670    -0.6470    -2.6290 o          1 5HP      -0.628000
      9 OXT         -0.4340    -0.4920     2.5660 o          1 5HP      -0.722000
     10 H            1.7280     0.4340    -0.4820 hn         1 5HP       0.332500
     11 HA          -0.6300     1.6530     0.5010 h1         1 5HP       0.028700
     12 HB1         -1.2630    -1.3710     0.1190 hc         1 5HP       0.050200
     13 HB2         -2.4300    -0.0430     0.2270 hc         1 5HP       0.050200
     14 HG1         -1.7330    -0.8550    -2.3030 hc         1 5HP       0.048200
     15 HG2         -1.6500     0.8950    -1.9040 hc         1 5HP       0.048200
@<TRIPOS>BOND
     1     1     2 1   
     2     1     7 1   
     3     1    10 1   
     4     2     3 1   
     5     2     5 1   
     6     2    11 1   
     7     3     4 1   
     8     3     9 1   
     9     5     6 1   
    10     5    12 1   
    11     5    13 1   
    12     6     7 1   
    13     6    14 1   
    14     6    15 1   
    15     7     8 2   
@<TRIPOS>SUBSTRUCTURE
     1 5HP         1 TEMP              0 ****  ****    0 ROOT
