@<TRIPOS>MOLECULE
5HQ
   23    24     1     0     0
SMALL
No Charge or Current Charge


@<TRIPOS>ATOM
      1 C4          -0.4050     0.0430    -0.0760 ca         1 5HQ       0.321000
      2 C5          -1.8750     0.0620     0.0260 cc         1 5HQ       0.063000
      3 C6          -2.6670     1.1770    -0.0410 cd         1 5HQ      -0.131000
      4 N1           0.2480     1.2210    -0.2520 nb         1 5HQ      -0.667000
      5 C7          -3.9940     0.7170     0.1040 cd         1 5HQ      -0.195000
      6 C8          -3.9470    -0.6460     0.2500 cc         1 5HQ       0.130900
      7 C9           1.5980     1.2050    -0.3450 ca         1 5HQ       0.341900
      8 N            4.5390    -0.3790     0.8380 n8         1 5HQ      -0.999200
      9 C1           2.3640     0.0270    -0.2670 ca         1 5HQ      -0.139300
     10 C3           0.2910    -1.1810     0.0080 ca         1 5HQ      -0.144000
     11 C2           1.6920    -1.1950    -0.0900 ca         1 5HQ      -0.052000
     12 O           -2.6360    -1.0720     0.2040 os         1 5HQ      -0.240000
     13 H1          -2.3370     2.2020    -0.1770 ha         1 5HQ       0.155000
     14 H2          -4.8930     1.3250     0.1010 ha         1 5HQ       0.142000
     15 H3          -4.7190    -1.3910     0.3870 h4         1 5HQ       0.052100
     16 H4           2.0790     2.1720    -0.4890 h4         1 5HQ       0.016100
     17 H5           5.5540    -0.2620     0.7340 hn         1 5HQ       0.398500
     18 H6           4.2980     0.2640     1.6020 hn         1 5HQ       0.398500
     19 H8           4.2020     1.1070    -0.6120 h1         1 5HQ       0.037200
     20 H9           4.1950    -0.5620    -1.2300 h1         1 5HQ       0.037200
     21 H10         -0.2510    -2.1120     0.1470 ha         1 5HQ       0.135000
     22 H11          2.2440    -2.1320    -0.0280 ha         1 5HQ       0.136000
     23 C            3.8760     0.0800    -0.3960 c3         1 5HQ       0.202100
@<TRIPOS>BOND
     1     1     2 1   
     2     1     4 ar  
     3     1    10 ar  
     4     2     3 2   
     5     2    12 1   
     6     3     5 1   
     7     3    13 1   
     8     4     7 ar  
     9     5     6 2   
    10     5    14 1   
    11     6    12 1   
    12     6    15 1   
    13     7     9 ar  
    14     7    16 1   
    15     8    17 1   
    16     8    18 1   
    17     8    23 1   
    18     9    11 ar  
    19     9    23 1   
    20    10    11 ar  
    21    10    21 1   
    22    11    22 1   
    23    19    23 1   
    24    20    23 1   
@<TRIPOS>SUBSTRUCTURE
     1 5HQ         1 TEMP              0 ****  ****    0 ROOT
