@<TRIPOS>MOLECULE
5HQ
   23    24     1     0     0
SMALL
bcc


@<TRIPOS>ATOM
      1 C4          -0.3920     0.0850    -0.0490 ca         1 5HQ       0.386300
      2 C5          -1.8430     0.1590     0.0100 cc         1 5HQ       0.172700
      3 C6          -2.7080     1.2000    -0.1320 cd         1 5HQ      -0.214300
      4 N1           0.2320     1.2360    -0.2920 nb         1 5HQ      -0.667000
      5 C7          -4.0150     0.6560     0.0220 cd         1 5HQ      -0.278300
      6 C8          -3.8450    -0.6700     0.2460 cc         1 5HQ       0.240600
      7 C9           1.5540     1.2350    -0.3660 ca         1 5HQ       0.407200
      8 N            4.5090    -0.6140     0.6730 n8         1 5HQ      -0.888800
      9 C1           2.3480     0.1040    -0.2120 ca         1 5HQ      -0.204600
     10 C3           0.3060    -1.1090     0.1380 ca         1 5HQ      -0.227300
     11 C2           1.6860    -1.0900     0.0570 ca         1 5HQ      -0.070000
     12 O           -2.5340    -0.9790     0.2400 os         1 5HQ      -0.328800
     13 H1          -2.4430     2.2270    -0.3220 ha         1 5HQ       0.173000
     14 H2          -4.9540     1.1810    -0.0290 ha         1 5HQ       0.160000
     15 H3          -4.5320    -1.4810     0.4200 h4         1 5HQ       0.052100
     16 H4           2.0210     2.1970    -0.5590 h4         1 5HQ       0.016100
     17 H5           5.5010    -0.6470     0.4750 hn         1 5HQ       0.343300
     18 H6           4.4170    -0.1540     1.5700 hn         1 5HQ       0.343300
     19 H8           4.1450     1.2300    -0.3720 h1         1 5HQ       0.037200
     20 H9           4.1230    -0.2380    -1.3230 h1         1 5HQ       0.037200
     21 H10         -0.2130    -2.0350     0.3450 ha         1 5HQ       0.153000
     22 H11          2.2520    -2.0000     0.2070 ha         1 5HQ       0.154000
     23 C            3.8430     0.1740    -0.3490 c3         1 5HQ       0.202100
@<TRIPOS>BOND
     1     1     2 1   
     2     1     4 ar  
     3     1    10 ar  
     4     2     3 2   
     5     2    12 1   
     6     3     5 1   
     7     3    13 1   
     8     4     7 ar  
     9     5     6 2   
    10     5    14 1   
    11     6    12 1   
    12     6    15 1   
    13     7     9 ar  
    14     7    16 1   
    15     8    17 1   
    16     8    18 1   
    17     8    23 1   
    18     9    11 ar  
    19     9    23 1   
    20    10    11 ar  
    21    10    21 1   
    22    11    22 1   
    23    19    23 1   
    24    20    23 1   
@<TRIPOS>SUBSTRUCTURE
     1 5HQ         1 TEMP              0 ****  ****    0 ROOT
