@<TRIPOS>MOLECULE
5HR
   28    28     1     0     0
SMALL
bcc


@<TRIPOS>ATOM
      1 N1          -0.0980    -0.1510    -0.7500 n7         1 5HR      -0.868200
      2 C20         -2.4640    -0.4260    -0.1020 ca         1 5HR      -0.035300
      3 C21         -3.4910    -1.1610     0.4900 ca         1 5HR      -0.123000
      4 C22         -4.7520    -0.6130     0.6720 ca         1 5HR      -0.148500
      5 C24         -3.9910     1.4370    -0.3110 ca         1 5HR      -0.148500
      6 O10          1.7900     0.9230     1.2260 o          1 5HR      -0.921167
      7 P4           2.9630     0.3520     0.3940 p5         1 5HR       1.114700
      8 O8           3.4470     1.3050    -0.7070 o          1 5HR      -0.921167
      9 O9           4.0910    -0.2240     1.2630 o          1 5HR      -0.921167
     10 C3           2.2280    -1.1240    -0.4830 c3         1 5HR      -0.055700
     11 N6           1.8270    -2.1900     0.4500 n8         1 5HR      -0.894800
     12 C2           1.0670    -0.7440    -1.3990 c3         1 5HR       0.219800
     13 C1          -1.1110    -1.0740    -0.2990 c3         1 5HR       0.229100
     14 C25         -2.7300     0.8800    -0.4990 ca         1 5HR      -0.123000
     15 C23         -5.0070     0.6950     0.2720 ca         1 5HR      -0.169000
     16 H11          0.2500     0.4060     0.0300 hn         1 5HR       0.443800
     17 H211        -3.3000    -2.1800     0.8120 ha         1 5HR       0.145000
     18 H221        -5.5350    -1.2030     1.1290 ha         1 5HR       0.104000
     19 H241        -4.1780     2.4570    -0.6250 ha         1 5HR       0.104000
     20 H31          3.0030    -1.5500    -1.1350 h1         1 5HR       0.029700
     21 H62          2.6440    -2.4130     1.0080 hn         1 5HR       0.315800
     22 H61          1.1960    -1.7710     1.1250 hn         1 5HR       0.315800
     23 H22          0.7350    -1.6220    -1.9650 h1         1 5HR       0.009200
     24 H21          1.4590    -0.0330    -2.1340 h1         1 5HR       0.009200
     25 H12         -1.2210    -1.8620    -1.0520 h1         1 5HR       0.024200
     26 H13         -0.8620    -1.6050     0.6320 h1         1 5HR       0.024200
     27 H251        -1.9410     1.4590    -0.9600 ha         1 5HR       0.145000
     28 H231        -5.9890     1.1270     0.4170 ha         1 5HR       0.098000
@<TRIPOS>BOND
     1     1    12 1   
     2     1    13 1   
     3     1    16 1   
     4     2     3 ar  
     5     2    13 1   
     6     2    14 ar  
     7     3     4 ar  
     8     3    17 1   
     9     4    15 ar  
    10     4    18 1   
    11     5    14 ar  
    12     5    15 ar  
    13     5    19 1   
    14     6     7 1   
    15     7     8 1   
    16     7     9 1   
    17     7    10 1   
    18    10    11 1   
    19    10    12 1   
    20    10    20 1   
    21    11    21 1   
    22    11    22 1   
    23    12    23 1   
    24    12    24 1   
    25    13    25 1   
    26    13    26 1   
    27    14    27 1   
    28    15    28 1   
@<TRIPOS>SUBSTRUCTURE
     1 5HR         1 TEMP              0 ****  ****    0 ROOT
