@<TRIPOS>MOLECULE
5HR
   28    28     1     0     0
SMALL
No Charge or Current Charge


@<TRIPOS>ATOM
      1 N1           0.0070     0.0530    -0.8890 n7         1 5HR      -0.923400
      2 C20         -2.3850    -0.3220    -0.3820 ca         1 5HR      -0.035300
      3 C21         -2.6580    -0.3050     1.0010 ca         1 5HR      -0.105000
      4 C22         -3.8590     0.2480     1.4810 ca         1 5HR      -0.130500
      5 C24         -4.5270     0.7770    -0.7960 ca         1 5HR      -0.130500
      6 O10          1.2160     0.5250     1.5840 o          1 5HR      -0.921167
      7 P4           2.5140    -0.0340     1.1010 p5         1 5HR       1.272500
      8 O8           3.4350     1.0620     0.6810 o          1 5HR      -0.921167
      9 O9           3.1510    -0.8510     2.1750 o          1 5HR      -0.921167
     10 C3           2.1510    -1.1730    -0.3900 c3         1 5HR      -0.213500
     11 N6           1.6590    -2.6070    -0.1970 n8         1 5HR      -1.005200
     12 C2           1.3110    -0.3690    -1.4270 c3         1 5HR       0.219800
     13 C1          -1.0880    -0.9340    -0.9040 c3         1 5HR       0.229100
     14 C25         -3.3270     0.2240    -1.2770 ca         1 5HR      -0.105000
     15 C23         -4.7930     0.7890     0.5830 ca         1 5HR      -0.151000
     16 H11          0.2020     0.3000     0.1050 hn         1 5HR       0.499000
     17 H211        -1.9380    -0.7210     1.7030 ha         1 5HR       0.127000
     18 H221        -4.0630     0.2580     2.5500 ha         1 5HR       0.086000
     19 H241        -5.2500     1.1970    -1.4930 ha         1 5HR       0.086000
     20 H31          3.1510    -1.2770    -0.8300 h1         1 5HR       0.029700
     21 H62          2.2570    -3.0720     0.5000 hn         1 5HR       0.371000
     22 H61          0.7420    -2.5810     0.2630 hn         1 5HR       0.371000
     23 H22          1.1850    -0.9500    -2.3510 h1         1 5HR       0.009200
     24 H21          1.8860     0.5280    -1.6940 h1         1 5HR       0.009200
     25 H12         -1.2550    -1.3030    -1.9260 h1         1 5HR       0.024200
     26 H13         -0.8450    -1.8030    -0.2800 h1         1 5HR       0.024200
     27 H251        -3.1270     0.2190    -2.3470 ha         1 5HR       0.127000
     28 H231        -5.7210     1.2170     0.9550 ha         1 5HR       0.080000
@<TRIPOS>BOND
     1     1    12 1   
     2     1    13 1   
     3     1    16 1   
     4     2     3 ar  
     5     2    13 1   
     6     2    14 ar  
     7     3     4 ar  
     8     3    17 1   
     9     4    15 ar  
    10     4    18 1   
    11     5    14 ar  
    12     5    15 ar  
    13     5    19 1   
    14     6     7 1   
    15     7     8 1   
    16     7     9 1   
    17     7    10 1   
    18    10    11 1   
    19    10    12 1   
    20    10    20 1   
    21    11    21 1   
    22    11    22 1   
    23    12    23 1   
    24    12    24 1   
    25    13    25 1   
    26    13    26 1   
    27    14    27 1   
    28    15    28 1   
@<TRIPOS>SUBSTRUCTURE
     1 5HR         1 TEMP              0 ****  ****    0 ROOT
