@<TRIPOS>MOLECULE
5HS
   26    27     1     0     0
SMALL
No Charge or Current Charge


@<TRIPOS>ATOM
      1 C4          -4.4630     0.2170     0.2660 ca         1 5HS       0.333900
      2 C5          -2.4440     1.1750    -0.3490 ca         1 5HS       0.337900
      3 C           -0.3100    -0.1810    -0.6940 c3         1 5HS      -0.023100
      4 C1          -1.7900    -0.0750    -0.3490 ca         1 5HS      -0.135300
      5 N           -3.7560     1.3280    -0.0480 nb         1 5HS      -0.664000
      6 C3          -3.8940    -1.0670     0.2930 ca         1 5HS      -0.161000
      7 C2          -2.5340    -1.2230    -0.0190 ca         1 5HS      -0.069000
      8 H1          -5.5160     0.3630     0.5050 h4         1 5HS       0.019100
      9 H2          -1.9000     2.0860    -0.5960 h4         1 5HS       0.016100
     10 H3          -0.1340    -1.0630    -1.3220 hc         1 5HS       0.055700
     11 H4           0.0030     0.6850    -1.2910 hc         1 5HS       0.055700
     12 H6          -4.5060    -1.9270     0.5530 ha         1 5HS       0.125000
     13 H7          -2.0700    -2.2070    -0.0050 ha         1 5HS       0.121000
     14 C6           0.5740    -0.2770     0.5680 c3         1 5HS      -0.112700
     15 C11          2.0450    -0.3530     0.2510 cc         1 5HS       0.271300
     16 C7           2.8640     0.7860     0.0730 cc         1 5HS      -0.209300
     17 C8           4.0910     0.2660    -0.1960 cd         1 5HS       0.164900
     18 O1           4.0360    -1.1020    -0.1860 os         1 5HS      -0.068700
     19 N1           2.6870    -1.5000     0.1080 nd         1 5HS      -0.362300
     20 C9           2.4320     2.2270     0.1700 c3         1 5HS      -0.011800
     21 H5           0.3750     0.5850     1.2160 hc         1 5HS       0.065200
     22 H8           0.2790    -1.1620     1.1440 hc         1 5HS       0.065200
     23 H9           5.0430     0.7370    -0.4040 h4         1 5HS       0.057100
     24 H10          2.0810     2.4640     1.1810 hc         1 5HS       0.044367
     25 H11          3.2640     2.9020    -0.0620 hc         1 5HS       0.044367
     26 H12          1.6200     2.4440    -0.5330 hc         1 5HS       0.044367
@<TRIPOS>BOND
     1     1     5 ar  
     2     1     6 ar  
     3     1     8 1   
     4     2     4 ar  
     5     2     5 ar  
     6     2     9 1   
     7     3     4 1   
     8     3    10 1   
     9     3    11 1   
    10     3    14 1   
    11     4     7 ar  
    12     6     7 ar  
    13     6    12 1   
    14     7    13 1   
    15    14    15 1   
    16    14    21 1   
    17    14    22 1   
    18    15    16 1   
    19    15    19 2   
    20    16    17 2   
    21    16    20 1   
    22    17    18 1   
    23    17    23 1   
    24    18    19 1   
    25    20    24 1   
    26    20    25 1   
    27    20    26 1   
@<TRIPOS>SUBSTRUCTURE
     1 5HS         1 TEMP              0 ****  ****    0 ROOT
