@<TRIPOS>MOLECULE
5HS
   26    27     1     0     0
SMALL
bcc


@<TRIPOS>ATOM
      1 C4          -4.4110     0.1820     0.3090 ca         1 5HS       0.399200
      2 C5          -2.4160     1.1650    -0.1640 ca         1 5HS       0.403200
      3 C           -0.2980    -0.1160    -0.6300 c3         1 5HS      -0.023100
      4 C1          -1.7650    -0.0560    -0.3210 ca         1 5HS      -0.200600
      5 N           -3.7010     1.2910     0.1420 nb         1 5HS      -0.664000
      6 C3          -3.8700    -1.0890     0.1760 ca         1 5HS      -0.244300
      7 C2          -2.5270    -1.2050    -0.1430 ca         1 5HS      -0.087000
      8 H1          -5.4590     0.3080     0.5560 h4         1 5HS       0.019100
      9 H2          -1.8610     2.0890    -0.3010 h4         1 5HS       0.016100
     10 H3          -0.0960    -0.9400    -1.3170 hc         1 5HS       0.055700
     11 H4           0.0080     0.8000    -1.1390 hc         1 5HS       0.055700
     12 H6          -4.4900    -1.9640     0.3180 ha         1 5HS       0.143000
     13 H7          -2.0740    -2.1830    -0.2610 ha         1 5HS       0.139000
     14 C6           0.5370    -0.3070     0.6450 c3         1 5HS      -0.112700
     15 C11          1.9970    -0.3190     0.3500 cc         1 5HS       0.336600
     16 C7           2.8250     0.7990     0.0310 cc         1 5HS      -0.339900
     17 C8           4.0320     0.2250    -0.1650 cd         1 5HS       0.274600
     18 O1           3.9550    -1.0950     0.0110 os         1 5HS      -0.113100
     19 N1           2.6760    -1.4290     0.3360 nd         1 5HS      -0.362300
     20 C9           2.4380     2.2350    -0.0410 c3         1 5HS      -0.011800
     21 H5           0.3200     0.5000     1.3500 hc         1 5HS       0.065200
     22 H8           0.2540    -1.2420     1.1300 hc         1 5HS       0.065200
     23 H9           5.0010     0.6270    -0.4210 h4         1 5HS       0.057100
     24 H10          1.9890     2.5710     0.8950 hc         1 5HS       0.044367
     25 H11          3.3040     2.8640    -0.2370 hc         1 5HS       0.044367
     26 H12          1.7110     2.4180    -0.8340 hc         1 5HS       0.044367
@<TRIPOS>BOND
     1     1     5 ar  
     2     1     6 ar  
     3     1     8 1   
     4     2     4 ar  
     5     2     5 ar  
     6     2     9 1   
     7     3     4 1   
     8     3    10 1   
     9     3    11 1   
    10     3    14 1   
    11     4     7 ar  
    12     6     7 ar  
    13     6    12 1   
    14     7    13 1   
    15    14    15 1   
    16    14    21 1   
    17    14    22 1   
    18    15    16 1   
    19    15    19 2   
    20    16    17 2   
    21    16    20 1   
    22    17    18 1   
    23    17    23 1   
    24    18    19 1   
    25    20    24 1   
    26    20    25 1   
    27    20    26 1   
@<TRIPOS>SUBSTRUCTURE
     1 5HS         1 TEMP              0 ****  ****    0 ROOT
