@<TRIPOS>MOLECULE
5HV
   85    89     1     0     0
SMALL
abcg2


@<TRIPOS>ATOM
      1 C01         -2.2740     5.7730     3.3730 c3         1 5HV      -0.090600
      2 C05         -2.7420     5.3980     1.9770 c3         1 5HV       0.174800
      3 N08         -3.6970     4.2990     1.9700 n3         1 5HV      -0.740600
      4 C09         -5.0240     4.6820     2.4300 c3         1 5HV       0.174800
      5 C12         -5.7880     3.5030     3.0110 c3         1 5HV      -0.090600
      6 C16         -3.7330     3.6300     0.6850 c3         1 5HV       0.151800
      7 C19         -2.6310     2.5780     0.5940 c3         1 5HV       0.092000
      8 N22         -2.5160     2.0200    -0.7420 n          1 5HV      -0.402800
      9 C23         -1.6660     2.7650    -1.6690 c3         1 5HV       0.143300
     10 C26         -0.2220     2.3800    -1.4820 ca         1 5HV      -0.107300
     11 C27          0.2610     1.1840    -2.0090 ca         1 5HV      -0.093000
     12 C29          1.5600     0.7770    -1.7620 ca         1 5HV      -0.097500
     13 C31          2.4150     1.5460    -0.9710 cp         1 5HV      -0.038000
     14 C32          1.9390     2.7530    -0.4650 ca         1 5HV      -0.097500
     15 C34          0.6400     3.1670    -0.7250 ca         1 5HV      -0.093000
     16 C36          3.7730     1.0670    -0.6620 cp         1 5HV      -0.002000
     17 C37          4.3150     1.2380     0.6110 ca         1 5HV      -0.111500
     18 C39          5.5670     0.7380     0.9280 ca         1 5HV      -0.059500
     19 C41          6.3070     0.0620    -0.0320 ca         1 5HV      -0.199300
     20 C42          5.7850    -0.1080    -1.3110 ca         1 5HV      -0.059500
     21 C44          4.5320     0.3920    -1.6190 ca         1 5HV      -0.111500
     22 C46          7.6290    -0.5450     0.3080 c3         1 5HV       0.357300
     23 F47          7.5140    -1.8550     0.5770 f          1 5HV      -0.113333
     24 F48          8.5070    -0.4400    -0.6990 f          1 5HV      -0.113333
     25 F49          8.1940     0.0200     1.3800 f          1 5HV      -0.113333
     26 C50         -3.0950     0.8790    -1.1510 c          1 5HV       0.589100
     27 O51         -3.0300     0.4540    -2.2930 o          1 5HV      -0.586100
     28 C52         -3.8890     0.0790    -0.1130 c3         1 5HV       0.123800
     29 N55         -4.0630    -1.2780    -0.5770 na         1 5HV      -0.571400
     30 C56         -5.2030    -1.6840    -1.2090 cc         1 5HV       0.127800
     31 C57         -6.4220    -0.8490    -1.4310 c5         1 5HV      -0.047200
     32 C60         -7.4480    -1.8920    -1.9180 c5         1 5HV      -0.078400
     33 C63         -6.6390    -3.1120    -2.4040 c5         1 5HV      -0.009200
     34 C66         -5.3160    -2.9210    -1.7330 cd         1 5HV      -0.264400
     35 C67         -4.2130    -3.8420    -1.6580 c          1 5HV       0.729700
     36 O68         -4.2360    -4.9780    -2.1170 o          1 5HV      -0.549100
     37 N69         -3.0790    -3.3630    -1.0250 nc         1 5HV      -0.725100
     38 C70         -3.0280    -2.1690    -0.5480 cd         1 5HV       0.699100
     39 S71         -1.5490    -1.5860     0.2030 ss         1 5HV      -0.287200
     40 C72         -0.4860    -3.0610     0.0900 c3         1 5HV       0.128900
     41 C75          0.7960    -2.7320     0.7960 ca         1 5HV      -0.107300
     42 C76          1.9420    -2.4070     0.0760 ca         1 5HV      -0.065500
     43 C78          3.1310    -2.1010     0.7230 ca         1 5HV      -0.153500
     44 C80          3.1520    -2.1150     2.1030 ca         1 5HV       0.180000
     45 F81          4.2950    -1.8210     2.7400 f          1 5HV      -0.176000
     46 C82          2.0330    -2.4290     2.8520 ca         1 5HV      -0.153500
     47 C84          0.8560    -2.7370     2.1880 ca         1 5HV      -0.065500
     48 H1          -1.5150     6.5540     3.3180 hc         1 5HV       0.038200
     49 H2          -3.0830     6.1520     3.9980 hc         1 5HV       0.038200
     50 H3          -1.8380     4.9100     3.8770 hc         1 5HV       0.038200
     51 H4          -3.1410     6.2850     1.4590 h1         1 5HV       0.030700
     52 H5          -1.8650     5.0890     1.4030 h1         1 5HV       0.030700
     53 H7          -4.9190     5.4390     3.2080 h1         1 5HV       0.030700
     54 H8          -5.6090     5.1540     1.6250 h1         1 5HV       0.030700
     55 H9          -6.7860     3.8080     3.3270 hc         1 5HV       0.038200
     56 H10         -5.9090     2.6920     2.2900 hc         1 5HV       0.038200
     57 H11         -5.2630     3.1010     3.8780 hc         1 5HV       0.038200
     58 H12         -4.6980     3.1330     0.5580 h1         1 5HV       0.036200
     59 H13         -3.6510     4.3370    -0.1550 h1         1 5HV       0.036200
     60 H14         -1.6620     3.0060     0.8600 h1         1 5HV       0.062700
     61 H15         -2.8080     1.8030     1.3370 h1         1 5HV       0.062700
     62 H16         -1.9950     2.5760    -2.6890 h1         1 5HV       0.067200
     63 H17         -1.8060     3.8300    -1.4810 h1         1 5HV       0.067200
     64 H18         -0.3880     0.5570    -2.6040 ha         1 5HV       0.123000
     65 H19          1.9020    -0.1670    -2.1670 ha         1 5HV       0.116500
     66 H20          2.5870     3.3870     0.1270 ha         1 5HV       0.116500
     67 H21          0.3030     4.1190    -0.3330 ha         1 5HV       0.123000
     68 H22          3.7420     1.7400     1.3800 ha         1 5HV       0.124000
     69 H23          5.9460     0.8770     1.9310 ha         1 5HV       0.132500
     70 H24          6.3450    -0.6280    -2.0770 ha         1 5HV       0.132500
     71 H25          4.1470     0.2590    -2.6220 ha         1 5HV       0.124000
     72 H26         -3.4230     0.0590     0.8710 h1         1 5HV       0.086700
     73 H27         -4.8670     0.5360     0.0350 h1         1 5HV       0.086700
     74 H28         -6.7600    -0.3310    -0.5320 hc         1 5HV       0.060200
     75 H29         -6.2150    -0.0830    -2.1850 hc         1 5HV       0.060200
     76 H30         -8.0810    -2.1850    -1.0800 hc         1 5HV       0.049200
     77 H31         -8.0990    -1.4870    -2.6900 hc         1 5HV       0.049200
     78 H32         -7.1160    -4.0560    -2.1340 hc         1 5HV       0.064200
     79 H33         -6.5220    -3.1190    -3.4910 hc         1 5HV       0.064200
     80 H34         -1.0070    -3.8950     0.5580 h1         1 5HV       0.095200
     81 H35         -0.3230    -3.2980    -0.9590 h1         1 5HV       0.095200
     82 H36          1.9130    -2.4000    -1.0060 ha         1 5HV       0.121500
     83 H37          4.0220    -1.8540     0.1620 ha         1 5HV       0.135500
     84 H38          2.0800    -2.4380     3.9330 ha         1 5HV       0.135500
     85 H39         -0.0260    -2.9890     2.7640 ha         1 5HV       0.121500
@<TRIPOS>BOND
     1     1     2 1   
     2     1    48 1   
     3     1    49 1   
     4     1    50 1   
     5     2     3 1   
     6     2    51 1   
     7     2    52 1   
     8     3     4 1   
     9     3     6 1   
    10     4     5 1   
    11     4    53 1   
    12     4    54 1   
    13     5    55 1   
    14     5    56 1   
    15     5    57 1   
    16     6     7 1   
    17     6    58 1   
    18     6    59 1   
    19     7     8 1   
    20     7    60 1   
    21     7    61 1   
    22     8     9 1   
    23     8    26 1   
    24     9    10 1   
    25     9    62 1   
    26     9    63 1   
    27    10    11 ar  
    28    10    15 ar  
    29    11    12 ar  
    30    11    64 1   
    31    12    13 ar  
    32    12    65 1   
    33    13    14 ar  
    34    13    16 1   
    35    14    15 ar  
    36    14    66 1   
    37    15    67 1   
    38    16    17 ar  
    39    16    21 ar  
    40    17    18 ar  
    41    17    68 1   
    42    18    19 ar  
    43    18    69 1   
    44    19    20 ar  
    45    19    22 1   
    46    20    21 ar  
    47    20    70 1   
    48    21    71 1   
    49    22    23 1   
    50    22    24 1   
    51    22    25 1   
    52    26    27 2   
    53    26    28 1   
    54    28    29 1   
    55    28    72 1   
    56    28    73 1   
    57    29    30 1   
    58    29    38 1   
    59    30    31 1   
    60    30    34 2   
    61    31    32 1   
    62    31    74 1   
    63    31    75 1   
    64    32    33 1   
    65    32    76 1   
    66    32    77 1   
    67    33    34 1   
    68    33    78 1   
    69    33    79 1   
    70    34    35 1   
    71    35    36 2   
    72    35    37 1   
    73    37    38 2   
    74    38    39 1   
    75    39    40 1   
    76    40    41 1   
    77    40    80 1   
    78    40    81 1   
    79    41    42 ar  
    80    41    47 ar  
    81    42    43 ar  
    82    42    82 1   
    83    43    44 ar  
    84    43    83 1   
    85    44    45 1   
    86    44    46 ar  
    87    46    47 ar  
    88    46    84 1   
    89    47    85 1   
@<TRIPOS>SUBSTRUCTURE
     1 5HV         1 TEMP              0 ****  ****    0 ROOT
