@<TRIPOS>MOLECULE
5HV
   85    89     1     0     0
SMALL
No Charge or Current Charge


@<TRIPOS>ATOM
      1 C01         -2.5360     4.3310     4.4630 c3         1 5HV      -0.090600
      2 C05         -2.5110     4.3360     2.9200 c3         1 5HV       0.174800
      3 N08         -3.7280     3.7770     2.2630 n3         1 5HV      -0.740600
      4 C09         -4.9670     4.5360     2.6020 c3         1 5HV       0.174800
      5 C12         -6.2860     3.8820     2.1390 c3         1 5HV      -0.090600
      6 C16         -3.5490     3.5910     0.7920 c3         1 5HV       0.151800
      7 C19         -2.4160     2.6200     0.3800 c3         1 5HV       0.092000
      8 N22         -2.4520     2.2560    -1.0600 n          1 5HV      -0.402800
      9 C23         -1.4440     2.9190    -1.9210 c3         1 5HV       0.143300
     10 C26         -0.0350     2.3890    -1.6790 ca         1 5HV      -0.107300
     11 C27          0.2970     1.0670    -2.0260 ca         1 5HV      -0.093000
     12 C29          1.5840     0.5660    -1.7720 ca         1 5HV      -0.097500
     13 C31          2.5790     1.3730    -1.1670 cp         1 5HV      -0.038000
     14 C32          2.2300     2.7040    -0.8270 ca         1 5HV      -0.097500
     15 C34          0.9410     3.2060    -1.0780 ca         1 5HV      -0.093000
     16 C36          3.9500     0.8340    -0.8910 cp         1 5HV      -0.002000
     17 C37          4.6830     1.2440     0.2490 ca         1 5HV      -0.111500
     18 C39          5.9600     0.7250     0.5220 ca         1 5HV      -0.059500
     19 C41          6.5490    -0.2190    -0.3450 ca         1 5HV      -0.199300
     20 C42          5.8300    -0.6370    -1.4830 ca         1 5HV      -0.059500
     21 C44          4.5530    -0.1170    -1.7510 ca         1 5HV      -0.111500
     22 C46          7.9330    -0.8020    -0.0360 c3         1 5HV       0.357300
     23 F47          7.8370    -1.9080     0.7350 f          1 5HV      -0.113333
     24 F48          8.6040    -1.1570    -1.1560 f          1 5HV      -0.113333
     25 F49          8.7240     0.0740     0.6260 f          1 5HV      -0.113333
     26 C50         -3.2220     1.1690    -1.5610 c          1 5HV       0.589100
     27 O51         -3.1110     0.8290    -2.7350 o          1 5HV      -0.586100
     28 C52         -4.2380     0.4270    -0.6320 c3         1 5HV       0.123800
     29 N55         -4.3040    -1.0630    -0.8220 na         1 5HV      -0.571400
     30 C56         -5.4500    -1.6560    -1.3610 cc         1 5HV       0.127800
     31 C57         -6.7320    -1.0060    -1.7670 c5         1 5HV      -0.047200
     32 C60         -7.6840    -2.2270    -1.9570 c5         1 5HV      -0.078400
     33 C63         -6.6920    -3.4240    -2.1900 c5         1 5HV      -0.009200
     34 C66         -5.3840    -2.9930    -1.5590 cd         1 5HV      -0.264400
     35 C67         -4.2280    -3.8160    -1.2320 c          1 5HV       0.729700
     36 O68         -4.1910    -5.0210    -1.4240 o          1 5HV      -0.549100
     37 N69         -3.1730    -3.1570    -0.6890 nc         1 5HV      -0.725100
     38 C70         -3.1880    -1.8590    -0.4900 cd         1 5HV       0.699100
     39 S71         -1.7770    -1.0770     0.2400 ss         1 5HV      -0.287200
     40 C72         -0.5850    -2.4680     0.4880 c3         1 5HV       0.128900
     41 C75          0.7080    -1.9770     1.1300 ca         1 5HV      -0.107300
     42 C76          1.9510    -2.2210     0.5080 ca         1 5HV      -0.065500
     43 C78          3.1430    -1.7900     1.1180 ca         1 5HV      -0.153500
     44 C80          3.0960    -1.1100     2.3440 ca         1 5HV       0.180000
     45 F81          4.2420    -0.7030     2.9330 f          1 5HV      -0.176000
     46 C82          1.8660    -0.8590     2.9670 ca         1 5HV      -0.153500
     47 C84          0.6730    -1.2950     2.3640 ca         1 5HV      -0.065500
     48 H1          -1.5460     4.5920     4.8530 hc         1 5HV       0.038200
     49 H2          -3.2500     5.0640     4.8570 hc         1 5HV       0.038200
     50 H3          -2.8020     3.3380     4.8420 hc         1 5HV       0.038200
     51 H4          -2.3350     5.3640     2.5750 h1         1 5HV       0.030700
     52 H5          -1.6300     3.7500     2.6320 h1         1 5HV       0.030700
     53 H7          -5.0510     4.6440     3.6900 h1         1 5HV       0.030700
     54 H8          -4.9130     5.5520     2.1850 h1         1 5HV       0.030700
     55 H9          -7.1390     4.4060     2.5850 hc         1 5HV       0.038200
     56 H10         -6.4000     3.9310     1.0510 hc         1 5HV       0.038200
     57 H11         -6.3280     2.8320     2.4540 hc         1 5HV       0.038200
     58 H12         -4.4700     3.1850     0.3580 h1         1 5HV       0.036200
     59 H13         -3.3720     4.5610     0.3080 h1         1 5HV       0.036200
     60 H14         -1.4540     3.1050     0.5910 h1         1 5HV       0.062700
     61 H15         -2.4390     1.7220     1.0070 h1         1 5HV       0.062700
     62 H16         -1.7000     2.7950    -2.9820 h1         1 5HV       0.067200
     63 H17         -1.4700     3.9980    -1.7200 h1         1 5HV       0.067200
     64 H18         -0.4460     0.4190    -2.4840 ha         1 5HV       0.123000
     65 H19          1.8040    -0.4660    -2.0330 ha         1 5HV       0.116500
     66 H20          2.9670     3.3600    -0.3730 ha         1 5HV       0.116500
     67 H21          0.7030     4.2300    -0.8010 ha         1 5HV       0.123000
     68 H22          4.2480     1.9540     0.9470 ha         1 5HV       0.124000
     69 H23          6.4820     1.0530     1.4180 ha         1 5HV       0.132500
     70 H24          6.2540    -1.3720    -2.1650 ha         1 5HV       0.132500
     71 H25          4.0290    -0.4510    -2.6430 ha         1 5HV       0.124000
     72 H26         -4.0220     0.6260     0.4210 h1         1 5HV       0.086700
     73 H27         -5.2110     0.8900    -0.8260 h1         1 5HV       0.086700
     74 H28         -7.1160    -0.3150    -1.0090 hc         1 5HV       0.060200
     75 H29         -6.6020    -0.4450    -2.6990 hc         1 5HV       0.060200
     76 H30         -8.2750    -2.3950    -1.0500 hc         1 5HV       0.049200
     77 H31         -8.3910    -2.0920    -2.7850 hc         1 5HV       0.049200
     78 H32         -7.0800    -4.3530    -1.7570 hc         1 5HV       0.064200
     79 H33         -6.5610    -3.6150    -3.2620 hc         1 5HV       0.064200
     80 H34         -1.0480    -3.2260     1.1320 h1         1 5HV       0.095200
     81 H35         -0.3740    -2.9310    -0.4850 h1         1 5HV       0.095200
     82 H36          1.9960    -2.7480    -0.4420 ha         1 5HV       0.121500
     83 H37          4.1010    -1.9800     0.6420 ha         1 5HV       0.135500
     84 H38          1.8380    -0.3350     3.9190 ha         1 5HV       0.135500
     85 H39         -0.2780    -1.1060     2.8580 ha         1 5HV       0.121500
@<TRIPOS>BOND
     1     1     2 1   
     2     1    48 1   
     3     1    49 1   
     4     1    50 1   
     5     2     3 1   
     6     2    51 1   
     7     2    52 1   
     8     3     4 1   
     9     3     6 1   
    10     4     5 1   
    11     4    53 1   
    12     4    54 1   
    13     5    55 1   
    14     5    56 1   
    15     5    57 1   
    16     6     7 1   
    17     6    58 1   
    18     6    59 1   
    19     7     8 1   
    20     7    60 1   
    21     7    61 1   
    22     8     9 1   
    23     8    26 1   
    24     9    10 1   
    25     9    62 1   
    26     9    63 1   
    27    10    11 ar  
    28    10    15 ar  
    29    11    12 ar  
    30    11    64 1   
    31    12    13 ar  
    32    12    65 1   
    33    13    14 ar  
    34    13    16 1   
    35    14    15 ar  
    36    14    66 1   
    37    15    67 1   
    38    16    17 ar  
    39    16    21 ar  
    40    17    18 ar  
    41    17    68 1   
    42    18    19 ar  
    43    18    69 1   
    44    19    20 ar  
    45    19    22 1   
    46    20    21 ar  
    47    20    70 1   
    48    21    71 1   
    49    22    23 1   
    50    22    24 1   
    51    22    25 1   
    52    26    27 2   
    53    26    28 1   
    54    28    29 1   
    55    28    72 1   
    56    28    73 1   
    57    29    30 1   
    58    29    38 1   
    59    30    31 1   
    60    30    34 2   
    61    31    32 1   
    62    31    74 1   
    63    31    75 1   
    64    32    33 1   
    65    32    76 1   
    66    32    77 1   
    67    33    34 1   
    68    33    78 1   
    69    33    79 1   
    70    34    35 1   
    71    35    36 2   
    72    35    37 1   
    73    37    38 2   
    74    38    39 1   
    75    39    40 1   
    76    40    41 1   
    77    40    80 1   
    78    40    81 1   
    79    41    42 ar  
    80    41    47 ar  
    81    42    43 ar  
    82    42    82 1   
    83    43    44 ar  
    84    43    83 1   
    85    44    45 1   
    86    44    46 ar  
    87    46    47 ar  
    88    46    84 1   
    89    47    85 1   
@<TRIPOS>SUBSTRUCTURE
     1 5HV         1 TEMP              0 ****  ****    0 ROOT
