@<TRIPOS>MOLECULE
5HW
   44    46     1     0     0
SMALL
No Charge or Current Charge


@<TRIPOS>ATOM
      1 O01          5.5530    -1.3800     0.1860 oh         1 5HW      -0.534600
      2 C02          4.2500    -0.9970     0.0770 ca         1 5HW       0.138600
      3 C03          3.3610    -1.2010     1.1440 ca         1 5HW      -0.178750
      4 C04          2.0170    -0.8030     1.0240 ca         1 5HW      -0.060500
      5 C05          1.5600    -0.1930    -0.1600 ca         1 5HW      -0.082800
      6 C06          0.1290     0.2060    -0.2890 ce         1 5HW      -0.011400
      7 C07         -0.8260    -0.9310    -0.1510 ca         1 5HW      -0.082800
      8 C08         -0.7730    -2.0080    -1.0560 ca         1 5HW      -0.060500
      9 C09         -1.6580    -3.0920    -0.9180 ca         1 5HW      -0.178750
     10 C10         -2.5920    -3.1090     0.1290 ca         1 5HW       0.138600
     11 O11         -3.4440    -4.1640     0.2550 oh         1 5HW      -0.534600
     12 C12         -2.6420    -2.0440     1.0430 ca         1 5HW      -0.178750
     13 C13         -1.7570    -0.9590     0.9060 ca         1 5HW      -0.060500
     14 C14         -0.2700     1.4920    -0.5070 c2         1 5HW      -0.082400
     15 C15          0.6880     2.6880    -0.5620 c6         1 5HW      -0.044200
     16 C16          0.2690     3.7830     0.4490 c6         1 5HW      -0.070400
     17 C17         -1.2070     4.2090     0.2510 c6         1 5HW      -0.073400
     18 C18         -2.1610     2.9870     0.3170 c6         1 5HW      -0.058700
     19 C19         -3.6410     3.4080     0.1170 c3         1 5HW      -0.087100
     20 C20         -1.7290     1.9130    -0.7160 c6         1 5HW      -0.043200
     21 C21          2.4560    -0.0030    -1.2310 ca         1 5HW      -0.060500
     22 C22          3.7990    -0.4010    -1.1090 ca         1 5HW      -0.178750
     23 H1           5.6870    -1.7750     1.0740 ho         1 5HW       0.463500
     24 H2           3.7000    -1.6670     2.0660 ha         1 5HW       0.120250
     25 H3           1.3290    -0.9650     1.8510 ha         1 5HW       0.117000
     26 H5          -0.0490    -2.0010    -1.8670 ha         1 5HW       0.117000
     27 H6          -1.6170    -3.9200    -1.6220 ha         1 5HW       0.120250
     28 H7          -4.0180    -4.0060     1.0350 ho         1 5HW       0.463500
     29 H8          -3.3580    -2.0510     1.8610 ha         1 5HW       0.120250
     30 H9          -1.7920    -0.1400     1.6210 ha         1 5HW       0.117000
     31 H11          1.7230     2.3980    -0.3460 hc         1 5HW       0.050200
     32 H12          0.6910     3.1050    -1.5790 hc         1 5HW       0.050200
     33 H13          0.4070     3.4060     1.4720 hc         1 5HW       0.041200
     34 H14          0.9260     4.6570     0.3470 hc         1 5HW       0.041200
     35 H15         -1.4830     4.9430     1.0200 hc         1 5HW       0.038700
     36 H16         -1.3150     4.7160    -0.7180 hc         1 5HW       0.038700
     37 H17         -2.0990     2.5460     1.3220 hc         1 5HW       0.045700
     38 H18         -3.7980     3.8580    -0.8710 hc         1 5HW       0.033700
     39 H19         -4.3130     2.5460     0.2020 hc         1 5HW       0.033700
     40 H20         -3.9480     4.1420     0.8710 hc         1 5HW       0.033700
     41 H21         -1.8360     2.3200    -1.7310 hc         1 5HW       0.051200
     42 H22         -2.4160     1.0590    -0.6750 hc         1 5HW       0.051200
     43 H23          2.1080     0.4510    -2.1570 ha         1 5HW       0.117000
     44 H24          4.4870    -0.2490    -1.9370 ha         1 5HW       0.120250
@<TRIPOS>BOND
     1     1     2 1   
     2     1    23 1   
     3     2     3 ar  
     4     2    22 ar  
     5     3     4 ar  
     6     3    24 1   
     7     4     5 ar  
     8     4    25 1   
     9     5     6 1   
    10     5    21 ar  
    11     6     7 1   
    12     6    14 2   
    13     7     8 ar  
    14     7    13 ar  
    15     8     9 ar  
    16     8    26 1   
    17     9    10 ar  
    18     9    27 1   
    19    10    11 1   
    20    10    12 ar  
    21    11    28 1   
    22    12    13 ar  
    23    12    29 1   
    24    13    30 1   
    25    14    15 1   
    26    14    20 1   
    27    15    16 1   
    28    15    31 1   
    29    15    32 1   
    30    16    17 1   
    31    16    33 1   
    32    16    34 1   
    33    17    18 1   
    34    17    35 1   
    35    17    36 1   
    36    18    19 1   
    37    18    20 1   
    38    18    37 1   
    39    19    38 1   
    40    19    39 1   
    41    19    40 1   
    42    20    41 1   
    43    20    42 1   
    44    21    22 ar  
    45    21    43 1   
    46    22    44 1   
@<TRIPOS>SUBSTRUCTURE
     1 5HW         1 TEMP              0 ****  ****    0 ROOT
