@<TRIPOS>MOLECULE
5HW
   44    46     1     0     0
SMALL
bcc


@<TRIPOS>ATOM
      1 O01          5.5470    -1.3510     0.0160 oh         1 5HW      -0.495600
      2 C02          4.2480    -0.9860    -0.0170 ca         1 5HW       0.138600
      3 C03          3.3570    -1.2820     1.0120 ca         1 5HW      -0.196750
      4 C04          2.0330    -0.8840     0.9160 ca         1 5HW      -0.078500
      5 C05          1.5610    -0.1700    -0.1840 ca         1 5HW      -0.082800
      6 C06          0.1350     0.2320    -0.2740 ce         1 5HW      -0.011400
      7 C07         -0.8270    -0.8850    -0.0980 ca         1 5HW      -0.082800
      8 C08         -0.7260    -2.0420    -0.8730 ca         1 5HW      -0.078500
      9 C09         -1.6000    -3.1030    -0.7140 ca         1 5HW      -0.196750
     10 C10         -2.6030    -3.0390     0.2520 ca         1 5HW       0.138600
     11 O11         -3.4290    -4.0980     0.3750 oh         1 5HW      -0.495600
     12 C12         -2.7090    -1.9040     1.0490 ca         1 5HW      -0.196750
     13 C13         -1.8270    -0.8470     0.8710 ca         1 5HW      -0.078500
     14 C14         -0.2520     1.5010    -0.5000 c2         1 5HW      -0.082400
     15 C15          0.6820     2.6790    -0.4810 c6         1 5HW      -0.044200
     16 C16          0.2120     3.6960     0.5650 c6         1 5HW      -0.070400
     17 C17         -1.2300     4.1260     0.3340 c6         1 5HW      -0.073400
     18 C18         -2.1820     2.9340     0.2760 c6         1 5HW      -0.058700
     19 C19         -3.6060     3.3660    -0.0440 c3         1 5HW      -0.087100
     20 C20         -1.6770     1.9140    -0.7520 c6         1 5HW      -0.043200
     21 C21          2.4670     0.1020    -1.2100 ca         1 5HW      -0.078500
     22 C22          3.7930    -0.2930    -1.1350 ca         1 5HW      -0.196750
     23 H1           5.7380    -1.8330     0.8280 ho         1 5HW       0.424500
     24 H2           3.6940    -1.8230     1.8890 ha         1 5HW       0.138250
     25 H3           1.3550    -1.1300     1.7260 ha         1 5HW       0.135000
     26 H5           0.0490    -2.1140    -1.6280 ha         1 5HW       0.135000
     27 H6          -1.5100    -3.9850    -1.3360 ha         1 5HW       0.138250
     28 H7          -4.0810    -3.9380     1.0660 ho         1 5HW       0.424500
     29 H8          -3.4730    -1.8410     1.8160 ha         1 5HW       0.138250
     30 H9          -1.9150     0.0210     1.5130 ha         1 5HW       0.135000
     31 H11          1.7080     2.3840    -0.2660 hc         1 5HW       0.050200
     32 H12          0.6890     3.1620    -1.4650 hc         1 5HW       0.050200
     33 H13          0.3090     3.2520     1.5610 hc         1 5HW       0.041200
     34 H14          0.8730     4.5660     0.5480 hc         1 5HW       0.041200
     35 H15         -1.5460     4.8190     1.1190 hc         1 5HW       0.038700
     36 H16         -1.2960     4.6800    -0.6110 hc         1 5HW       0.038700
     37 H17         -2.1800     2.4470     1.2600 hc         1 5HW       0.045700
     38 H18         -3.6570     3.8320    -1.0310 hc         1 5HW       0.033700
     39 H19         -4.2900     2.5160    -0.0410 hc         1 5HW       0.033700
     40 H20         -3.9740     4.0910     0.6840 hc         1 5HW       0.033700
     41 H21         -1.7130     2.3890    -1.7420 hc         1 5HW       0.051200
     42 H22         -2.3510     1.0590    -0.7940 hc         1 5HW       0.051200
     43 H23          2.1270     0.6270    -2.0950 ha         1 5HW       0.135000
     44 H24          4.4750    -0.0730    -1.9470 ha         1 5HW       0.138250
@<TRIPOS>BOND
     1     1     2 1   
     2     1    23 1   
     3     2     3 ar  
     4     2    22 ar  
     5     3     4 ar  
     6     3    24 1   
     7     4     5 ar  
     8     4    25 1   
     9     5     6 1   
    10     5    21 ar  
    11     6     7 1   
    12     6    14 2   
    13     7     8 ar  
    14     7    13 ar  
    15     8     9 ar  
    16     8    26 1   
    17     9    10 ar  
    18     9    27 1   
    19    10    11 1   
    20    10    12 ar  
    21    11    28 1   
    22    12    13 ar  
    23    12    29 1   
    24    13    30 1   
    25    14    15 1   
    26    14    20 1   
    27    15    16 1   
    28    15    31 1   
    29    15    32 1   
    30    16    17 1   
    31    16    33 1   
    32    16    34 1   
    33    17    18 1   
    34    17    35 1   
    35    17    36 1   
    36    18    19 1   
    37    18    20 1   
    38    18    37 1   
    39    19    38 1   
    40    19    39 1   
    41    19    40 1   
    42    20    41 1   
    43    20    42 1   
    44    21    22 ar  
    45    21    43 1   
    46    22    44 1   
@<TRIPOS>SUBSTRUCTURE
     1 5HW         1 TEMP              0 ****  ****    0 ROOT
