@<TRIPOS>MOLECULE
5HX
   47    50     1     0     0
SMALL
abcg2


@<TRIPOS>ATOM
      1 C01         -1.1570     2.8470    -1.1700 c6         1 5HX      -0.062650
      2 C02         -2.6080     2.5570    -1.5550 c6         1 5HX      -0.070400
      3 C03         -2.9690     1.0810    -1.4060 c6         1 5HX      -0.062650
      4 C04         -2.4770     0.4320    -0.1000 c6         1 5HX      -0.026000
      5 C05         -3.1690     0.9450     1.1730 c6         1 5HX      -0.062650
      6 C06         -2.8010     2.3790     1.5570 c6         1 5HX      -0.070400
      7 C07         -1.3070     2.6590     1.4090 c6         1 5HX      -0.062650
      8 C08         -0.6840     2.1310     0.1050 c6         1 5HX      -0.026000
      9 C09         -0.9920     0.6600     0.0040 c2         1 5HX      -0.071400
     10 C10         -0.0680    -0.3140     0.0030 ce         1 5HX      -0.022400
     11 C11         -0.4190    -1.7580     0.0180 ca         1 5HX      -0.043800
     12 C12          1.3920    -0.0470    -0.0190 ca         1 5HX      -0.080800
     13 C13         -1.1920    -2.3130     1.0370 ca         1 5HX      -0.100500
     14 C14         -1.4920    -3.6690     1.0480 ca         1 5HX      -0.113500
     15 C15         -1.0190    -4.4970     0.0390 ca         1 5HX      -0.110000
     16 C16         -0.2360    -3.9590    -0.9760 ca         1 5HX      -0.113500
     17 C17          0.0670    -2.6060    -0.9800 ca         1 5HX      -0.100500
     18 C18          2.2230    -0.5850     0.9660 ca         1 5HX      -0.061000
     19 C19          3.5900    -0.3670     0.9640 ca         1 5HX      -0.178500
     20 C20          4.1710     0.3940    -0.0500 ca         1 5HX       0.138100
     21 C21          3.3630     0.9220    -1.0520 ca         1 5HX      -0.178500
     22 C22          1.9940     0.6970    -1.0310 ca         1 5HX      -0.061000
     23 O01          5.5060     0.5770    -0.0140 oh         1 5HX      -0.534100
     24 H1          -0.5040     2.5280    -1.9890 hc         1 5HX       0.038575
     25 H2          -1.0060     3.9250    -1.0610 hc         1 5HX       0.038575
     26 H3          -3.2870     3.1680    -0.9620 hc         1 5HX       0.037450
     27 H4          -2.7730     2.8640    -2.5910 hc         1 5HX       0.037450
     28 H5          -4.0520     0.9500    -1.4910 hc         1 5HX       0.038575
     29 H6          -2.5250     0.5190    -2.2340 hc         1 5HX       0.038575
     30 H7          -2.6930    -0.6350    -0.1830 hc         1 5HX       0.058200
     31 H8          -4.2530     0.8520     1.0620 hc         1 5HX       0.038575
     32 H9          -2.8890     0.2760     1.9940 hc         1 5HX       0.038575
     33 H10         -3.3730     3.0890     0.9610 hc         1 5HX       0.037450
     34 H11         -3.1010     2.5610     2.5920 hc         1 5HX       0.037450
     35 H12         -1.1190     3.7340     1.4930 hc         1 5HX       0.038575
     36 H13         -0.7720     2.1880     2.2400 hc         1 5HX       0.038575
     37 H14          0.3930     2.2870     0.1890 hc         1 5HX       0.058200
     38 H17         -1.5580    -1.6780     1.8350 ha         1 5HX       0.115000
     39 H18         -2.0920    -4.0800     1.8500 ha         1 5HX       0.111500
     40 H19         -1.2530    -5.5540     0.0450 ha         1 5HX       0.111000
     41 H20          0.1410    -4.5960    -1.7660 ha         1 5HX       0.111500
     42 H21          0.6840    -2.1970    -1.7720 ha         1 5HX       0.115000
     43 H22          1.7910    -1.1830     1.7600 ha         1 5HX       0.117000
     44 H23          4.2110    -0.7860     1.7450 ha         1 5HX       0.120000
     45 H24          3.8000     1.5010    -1.8590 ha         1 5HX       0.120000
     46 H25          1.3850     1.1070    -1.8280 ha         1 5HX       0.117000
     47 H26          5.7910     1.1120    -0.7630 ho         1 5HX       0.463000
@<TRIPOS>BOND
     1     1     2 1   
     2     1     8 1   
     3     1    24 1   
     4     1    25 1   
     5     2     3 1   
     6     2    26 1   
     7     2    27 1   
     8     3     4 1   
     9     3    28 1   
    10     3    29 1   
    11     4     5 1   
    12     4     9 1   
    13     4    30 1   
    14     5     6 1   
    15     5    31 1   
    16     5    32 1   
    17     6     7 1   
    18     6    33 1   
    19     6    34 1   
    20     7     8 1   
    21     7    35 1   
    22     7    36 1   
    23     8     9 1   
    24     8    37 1   
    25     9    10 2   
    26    10    11 1   
    27    10    12 1   
    28    11    13 ar  
    29    11    17 ar  
    30    12    18 ar  
    31    12    22 ar  
    32    13    14 ar  
    33    13    38 1   
    34    14    15 ar  
    35    14    39 1   
    36    15    16 ar  
    37    15    40 1   
    38    16    17 ar  
    39    16    41 1   
    40    17    42 1   
    41    18    19 ar  
    42    18    43 1   
    43    19    20 ar  
    44    19    44 1   
    45    20    21 ar  
    46    20    23 1   
    47    21    22 ar  
    48    21    45 1   
    49    22    46 1   
    50    23    47 1   
@<TRIPOS>SUBSTRUCTURE
     1 5HX         1 TEMP              0 ****  ****    0 ROOT
