@<TRIPOS>MOLECULE
5HX
   47    50     1     0     0
SMALL
No Charge or Current Charge


@<TRIPOS>ATOM
      1 C01         -1.1550     2.8520    -1.2210 c6         1 5HX      -0.062650
      2 C02         -2.6360     2.5640    -1.5960 c6         1 5HX      -0.070400
      3 C03         -3.0350     1.0750    -1.3970 c6         1 5HX      -0.062650
      4 C04         -2.4960     0.4300    -0.0840 c6         1 5HX      -0.026000
      5 C05         -3.1680     0.9450     1.2240 c6         1 5HX      -0.062650
      6 C06         -2.7980     2.4060     1.6010 c6         1 5HX      -0.070400
      7 C07         -1.2890     2.7220     1.4010 c6         1 5HX      -0.062650
      8 C08         -0.6770     2.1500     0.0860 c6         1 5HX      -0.026000
      9 C09         -0.9870     0.6560    -0.0000 c2         1 5HX      -0.071400
     10 C10         -0.0500    -0.3350    -0.0010 ce         1 5HX      -0.022400
     11 C11         -0.3990    -1.7840    -0.0210 ca         1 5HX      -0.043800
     12 C12          1.4160    -0.0680     0.0170 ca         1 5HX      -0.080800
     13 C13         -1.0850    -2.3700     1.0610 ca         1 5HX      -0.100500
     14 C14         -1.3980    -3.7400     1.0440 ca         1 5HX      -0.113500
     15 C15         -1.0200    -4.5340    -0.0520 ca         1 5HX      -0.110000
     16 C16         -0.3240    -3.9570    -1.1280 ca         1 5HX      -0.113500
     17 C17         -0.0120    -2.5860    -1.1100 ca         1 5HX      -0.100500
     18 C18          2.1960    -0.5020     1.1060 ca         1 5HX      -0.061000
     19 C19          3.5820    -0.2660     1.1210 ca         1 5HX      -0.178500
     20 C20          4.1940     0.3970     0.0470 ca         1 5HX       0.138100
     21 C21          3.4240     0.8220    -1.0470 ca         1 5HX      -0.178500
     22 C22          2.0380     0.5860    -1.0640 ca         1 5HX      -0.061000
     23 O01          5.5370     0.6200     0.0710 oh         1 5HX      -0.534100
     24 H1          -0.5180     2.5090    -2.0480 hc         1 5HX       0.038575
     25 H2          -0.9930     3.9360    -1.1490 hc         1 5HX       0.038575
     26 H3          -3.3110     3.2240    -1.0430 hc         1 5HX       0.037450
     27 H4          -2.7950     2.8370    -2.6480 hc         1 5HX       0.037450
     28 H5          -4.1280     0.9730    -1.4470 hc         1 5HX       0.038575
     29 H6          -2.6430     0.4970    -2.2460 hc         1 5HX       0.038575
     30 H7          -2.7200    -0.6410    -0.1580 hc         1 5HX       0.058200
     31 H8          -4.2600     0.8440     1.1530 hc         1 5HX       0.038575
     32 H9          -2.8600     0.2880     2.0500 hc         1 5HX       0.038575
     33 H10         -3.4190     3.1180     1.0500 hc         1 5HX       0.037450
     34 H11         -3.0600     2.5790     2.6540 hc         1 5HX       0.037450
     35 H12         -1.1260     3.8080     1.4520 hc         1 5HX       0.038575
     36 H13         -0.7330     2.2970     2.2480 hc         1 5HX       0.038575
     37 H14          0.4050     2.3130     0.1580 hc         1 5HX       0.058200
     38 H17         -1.3730    -1.7610     1.9150 ha         1 5HX       0.115000
     39 H18         -1.9320    -4.1860     1.8800 ha         1 5HX       0.111500
     40 H19         -1.2610    -5.5940    -0.0660 ha         1 5HX       0.111000
     41 H20         -0.0260    -4.5710    -1.9750 ha         1 5HX       0.111500
     42 H21          0.5290    -2.1440    -1.9450 ha         1 5HX       0.115000
     43 H22          1.7250    -1.0180     1.9400 ha         1 5HX       0.117000
     44 H23          4.1790    -0.5990     1.9660 ha         1 5HX       0.120000
     45 H24          3.8910     1.3310    -1.8870 ha         1 5HX       0.120000
     46 H25          1.4450     0.9090    -1.9170 ha         1 5HX       0.117000
     47 H26          5.7880     1.0890    -0.7540 ho         1 5HX       0.463000
@<TRIPOS>BOND
     1     1     2 1   
     2     1     8 1   
     3     1    24 1   
     4     1    25 1   
     5     2     3 1   
     6     2    26 1   
     7     2    27 1   
     8     3     4 1   
     9     3    28 1   
    10     3    29 1   
    11     4     5 1   
    12     4     9 1   
    13     4    30 1   
    14     5     6 1   
    15     5    31 1   
    16     5    32 1   
    17     6     7 1   
    18     6    33 1   
    19     6    34 1   
    20     7     8 1   
    21     7    35 1   
    22     7    36 1   
    23     8     9 1   
    24     8    37 1   
    25     9    10 2   
    26    10    11 1   
    27    10    12 1   
    28    11    13 ar  
    29    11    17 ar  
    30    12    18 ar  
    31    12    22 ar  
    32    13    14 ar  
    33    13    38 1   
    34    14    15 ar  
    35    14    39 1   
    36    15    16 ar  
    37    15    40 1   
    38    16    17 ar  
    39    16    41 1   
    40    17    42 1   
    41    18    19 ar  
    42    18    43 1   
    43    19    20 ar  
    44    19    44 1   
    45    20    21 ar  
    46    20    23 1   
    47    21    22 ar  
    48    21    45 1   
    49    22    46 1   
    50    23    47 1   
@<TRIPOS>SUBSTRUCTURE
     1 5HX         1 TEMP              0 ****  ****    0 ROOT
