@<TRIPOS>MOLECULE
5HY
   16    16     1     0     0
SMALL
abcg2


@<TRIPOS>ATOM
      1 C            1.2640    -1.1920    -0.1030 c          1 5HY       0.547000
      2 N            0.5580     0.9770    -0.3330 ns         1 5HY      -0.487900
      3 O            1.3460    -2.3980    -0.0880 o          1 5HY      -0.545000
      4 CA           0.0490    -0.3630    -0.4820 c5         1 5HY       0.054700
      5 CB          -1.1490    -0.6660     0.4060 c3         1 5HY      -0.225400
      6 CG          -2.3930     0.1850     0.0840 c          1 5HY       0.723000
      7 OAB          2.5110     1.9940     0.3580 o          1 5HY      -0.601000
      8 NAF          2.2390    -0.3040     0.2310 ns         1 5HY      -0.499500
      9 CAI          1.8240     1.0250     0.1080 c          1 5HY       0.607000
     10 OD1         -3.4190    -0.0940     0.7290 o          1 5HY      -0.732000
     11 OD2         -2.2690     1.0790    -0.7790 o          1 5HY      -0.732000
     12 HN          -0.0260     1.7860    -0.4710 hn         1 5HY       0.381500
     13 HA          -0.2000    -0.5710    -1.5280 h1         1 5HY       0.088700
     14 HB          -1.4010    -1.7260     0.3120 hc         1 5HY       0.044200
     15 HBA         -0.8760    -0.5090     1.4550 hc         1 5HY       0.044200
     16 HNAF         3.1660    -0.5610     0.5410 hn         1 5HY       0.330500
@<TRIPOS>BOND
     1     1     3 2   
     2     1     4 1   
     3     1     8 1   
     4     2     4 1   
     5     2     9 1   
     6     2    12 1   
     7     4     5 1   
     8     4    13 1   
     9     5     6 1   
    10     5    14 1   
    11     5    15 1   
    12     6    10 1   
    13     6    11 1   
    14     7     9 2   
    15     8     9 1   
    16     8    16 1   
@<TRIPOS>SUBSTRUCTURE
     1 5HY         1 TEMP              0 ****  ****    0 ROOT
