@<TRIPOS>MOLECULE
5HY
   16    16     1     0     0
SMALL
No Charge or Current Charge


@<TRIPOS>ATOM
      1 C            1.2400    -1.2730     0.0540 c          1 5HY       0.547000
      2 N            0.5500     0.9010    -0.5210 ns         1 5HY      -0.487900
      3 O            1.3900    -2.4580     0.3090 o          1 5HY      -0.545000
      4 CA          -0.0230    -0.4610    -0.3900 c5         1 5HY       0.054700
      5 CB          -1.1750    -0.5390     0.6450 c3         1 5HY      -0.225400
      6 CG          -2.3880     0.2500     0.1430 c          1 5HY       0.723000
      7 OAB          2.5980     1.9010    -0.1800 o          1 5HY      -0.601000
      8 NAF          2.2030    -0.3280     0.1130 ns         1 5HY      -0.499500
      9 CAI          1.8690     0.9290    -0.1930 c          1 5HY       0.607000
     10 OD1         -3.1880    -0.3290    -0.5760 o          1 5HY      -0.732000
     11 OD2         -2.4700     1.4320     0.4360 o          1 5HY      -0.732000
     12 HN           0.0630     1.7620    -0.7410 hn         1 5HY       0.381500
     13 HA          -0.3560    -0.8600    -1.3580 h1         1 5HY       0.088700
     14 HB          -1.4350    -1.6010     0.7320 hc         1 5HY       0.044200
     15 HBA         -0.7980    -0.1050     1.5780 hc         1 5HY       0.044200
     16 HNAF         3.1450    -0.5600     0.3870 hn         1 5HY       0.330500
@<TRIPOS>BOND
     1     1     3 2   
     2     1     4 1   
     3     1     8 1   
     4     2     4 1   
     5     2     9 1   
     6     2    12 1   
     7     4     5 1   
     8     4    13 1   
     9     5     6 1   
    10     5    14 1   
    11     5    15 1   
    12     6    10 1   
    13     6    11 1   
    14     7     9 2   
    15     8     9 1   
    16     8    16 1   
@<TRIPOS>SUBSTRUCTURE
     1 5HY         1 TEMP              0 ****  ****    0 ROOT
