@<TRIPOS>MOLECULE
5HZ
   48    51     1     0     0
SMALL
abcg2


@<TRIPOS>ATOM
      1 C01          1.2940    -3.0800     1.2050 c6         1 5HZ      -0.062900
      2 C02          0.0240    -3.8620     1.5450 c6         1 5HZ      -0.070900
      3 C03         -1.2440    -3.0290     1.3610 c6         1 5HZ      -0.062900
      4 C04         -1.2830    -2.1990     0.0650 c6         1 5HZ      -0.026000
      5 C05         -1.4030    -3.0290    -1.2230 c6         1 5HZ      -0.062900
      6 C06         -0.1510    -3.8350    -1.5700 c6         1 5HZ      -0.070900
      7 C07          1.1320    -3.0300    -1.3760 c6         1 5HZ      -0.062900
      8 C08          1.1900    -2.2240    -0.0660 c6         1 5HZ      -0.026000
      9 C09         -0.0370    -1.3540     0.0080 c2         1 5HZ      -0.072400
     10 C10         -0.0250    -0.0100     0.0220 ce         1 5HZ      -0.014400
     11 C11          1.2250     0.7900     0.0770 ca         1 5HZ      -0.081300
     12 C12         -1.2650     0.8080    -0.0170 ca         1 5HZ      -0.081300
     13 C13          1.4610     1.7920    -0.8650 ca         1 5HZ      -0.061750
     14 C14          2.6090     2.5660    -0.8340 ca         1 5HZ      -0.178250
     15 C15          3.5570     2.3670     0.1680 ca         1 5HZ       0.137600
     16 C16          3.3330     1.3850     1.1290 ca         1 5HZ      -0.178250
     17 C17          2.1810     0.6160     1.0780 ca         1 5HZ      -0.061750
     18 C18         -2.2020     0.6940    -1.0440 ca         1 5HZ      -0.061750
     19 C19         -3.3420     1.4810    -1.0830 ca         1 5HZ      -0.178250
     20 C20         -3.5700     2.4210    -0.0820 ca         1 5HZ       0.137600
     21 C21         -2.6420     2.5590     0.9480 ca         1 5HZ      -0.178250
     22 C22         -1.5060     1.7670     0.9670 ca         1 5HZ      -0.061750
     23 O01         -4.6890     3.1720    -0.1590 oh         1 5HZ      -0.534600
     24 O02          4.6880     3.0960     0.2560 oh         1 5HZ      -0.534600
     25 H1           1.5280    -2.4100     2.0390 hc         1 5HZ       0.038450
     26 H2           2.1420    -3.7660     1.1150 hc         1 5HZ       0.038450
     27 H3          -0.0300    -4.7700     0.9450 hc         1 5HZ       0.037450
     28 H4           0.0810    -4.2040     2.5820 hc         1 5HZ       0.037450
     29 H5          -2.1260    -3.6750     1.4050 hc         1 5HZ       0.038450
     30 H6          -1.3330    -2.3290     2.1980 hc         1 5HZ       0.038450
     31 H7          -2.1710    -1.5660     0.1270 hc         1 5HZ       0.058200
     32 H8          -2.2690    -3.6920    -1.1520 hc         1 5HZ       0.038450
     33 H9          -1.6110    -2.3350    -2.0440 hc         1 5HZ       0.038450
     34 H10         -0.1160    -4.7490    -0.9790 hc         1 5HZ       0.037450
     35 H11         -0.2140    -4.1650    -2.6110 hc         1 5HZ       0.037450
     36 H12          2.0020    -3.6920    -1.4330 hc         1 5HZ       0.038450
     37 H13          1.2340    -2.3180    -2.2010 hc         1 5HZ       0.038450
     38 H14          2.0910    -1.6090    -0.1180 hc         1 5HZ       0.058200
     39 H17          0.7330     1.9690    -1.6480 ha         1 5HZ       0.117000
     40 H18          2.7650     3.3290    -1.5890 ha         1 5HZ       0.119750
     41 H19          4.0570     1.2310     1.9200 ha         1 5HZ       0.119750
     42 H20          2.0200    -0.1330     1.8430 ha         1 5HZ       0.117000
     43 H21         -2.0350    -0.0240    -1.8380 ha         1 5HZ       0.117000
     44 H22         -4.0520     1.3740    -1.8930 ha         1 5HZ       0.119750
     45 H23         -2.8050     3.2880     1.7340 ha         1 5HZ       0.119750
     46 H24         -0.7930     1.8960     1.7730 ha         1 5HZ       0.117000
     47 H25         -4.7310     3.7850     0.5830 ho         1 5HZ       0.464000
     48 H26          4.7280     3.7400    -0.4600 ho         1 5HZ       0.464000
@<TRIPOS>BOND
     1     1     2 1   
     2     1     8 1   
     3     1    25 1   
     4     1    26 1   
     5     2     3 1   
     6     2    27 1   
     7     2    28 1   
     8     3     4 1   
     9     3    29 1   
    10     3    30 1   
    11     4     5 1   
    12     4     9 1   
    13     4    31 1   
    14     5     6 1   
    15     5    32 1   
    16     5    33 1   
    17     6     7 1   
    18     6    34 1   
    19     6    35 1   
    20     7     8 1   
    21     7    36 1   
    22     7    37 1   
    23     8     9 1   
    24     8    38 1   
    25     9    10 2   
    26    10    11 1   
    27    10    12 1   
    28    11    13 ar  
    29    11    17 ar  
    30    12    18 ar  
    31    12    22 ar  
    32    13    14 ar  
    33    13    39 1   
    34    14    15 ar  
    35    14    40 1   
    36    15    16 ar  
    37    15    24 1   
    38    16    17 ar  
    39    16    41 1   
    40    17    42 1   
    41    18    19 ar  
    42    18    43 1   
    43    19    20 ar  
    44    19    44 1   
    45    20    21 ar  
    46    20    23 1   
    47    21    22 ar  
    48    21    45 1   
    49    22    46 1   
    50    23    47 1   
    51    24    48 1   
@<TRIPOS>SUBSTRUCTURE
     1 5HZ         1 TEMP              0 ****  ****    0 ROOT
