@<TRIPOS>MOLECULE
5HZ
   48    51     1     0     0
SMALL
No Charge or Current Charge


@<TRIPOS>ATOM
      1 C01          1.2950    -3.0780     1.2530 c6         1 5HZ      -0.062900
      2 C02          0.0040    -3.8780     1.5810 c6         1 5HZ      -0.070900
      3 C03         -1.2960    -3.0580     1.3510 c6         1 5HZ      -0.062900
      4 C04         -1.3000    -2.2050     0.0450 c6         1 5HZ      -0.026000
      5 C05         -1.4020    -3.0280    -1.2750 c6         1 5HZ      -0.062900
      6 C06         -0.1240    -3.8420    -1.6210 c6         1 5HZ      -0.070900
      7 C07          1.1890    -3.0480    -1.3730 c6         1 5HZ      -0.062900
      8 C08          1.2070    -2.2250    -0.0490 c6         1 5HZ      -0.026000
      9 C09         -0.0390    -1.3420     0.0080 c2         1 5HZ      -0.072400
     10 C10         -0.0280     0.0210     0.0230 ce         1 5HZ      -0.014400
     11 C11          1.2270     0.8230     0.0510 ca         1 5HZ      -0.081300
     12 C12         -1.2700     0.8440     0.0120 ca         1 5HZ      -0.081300
     13 C13          1.5350     1.6850    -1.0190 ca         1 5HZ      -0.061750
     14 C14          2.7100     2.4570    -0.9920 ca         1 5HZ      -0.178250
     15 C15          3.5770     2.3750     0.1100 ca         1 5HZ       0.137600
     16 C16          3.2690     1.5280     1.1840 ca         1 5HZ      -0.178250
     17 C17          2.0950     0.7560     1.1590 ca         1 5HZ      -0.061750
     18 C18         -2.1390     0.8150    -1.0960 ca         1 5HZ      -0.061750
     19 C19         -3.3000     1.6070    -1.1050 ca         1 5HZ      -0.178250
     20 C20         -3.5940     2.4360    -0.0120 ca         1 5HZ       0.137600
     21 C21         -2.7260     2.4790     1.0910 ca         1 5HZ      -0.178250
     22 C22         -1.5640     1.6870     1.1010 ca         1 5HZ      -0.061750
     23 O01         -4.7220     3.2000    -0.0300 oh         1 5HZ      -0.534600
     24 O02          4.7170     3.1210     0.1440 oh         1 5HZ      -0.534600
     25 H1           1.5030    -2.4010     2.0930 hc         1 5HZ       0.038450
     26 H2           2.1540    -3.7610     1.2000 hc         1 5HZ       0.038450
     27 H3          -0.0240    -4.8160     1.0180 hc         1 5HZ       0.037450
     28 H4           0.0410    -4.1970     2.6320 hc         1 5HZ       0.037450
     29 H5          -2.1670    -3.7270     1.3680 hc         1 5HZ       0.038450
     30 H6          -1.4270    -2.3760     2.2020 hc         1 5HZ       0.038450
     31 H7          -2.1960    -1.5740     0.0980 hc         1 5HZ       0.058200
     32 H8          -2.2720    -3.6980    -1.2370 hc         1 5HZ       0.038450
     33 H9          -1.5980    -2.3300    -2.1000 hc         1 5HZ       0.038450
     34 H10         -0.1110    -4.7920    -1.0780 hc         1 5HZ       0.037450
     35 H11         -0.1670    -4.1370    -2.6790 hc         1 5HZ       0.037450
     36 H12          2.0490    -3.7320    -1.4040 hc         1 5HZ       0.038450
     37 H13          1.3320    -2.3500    -2.2090 hc         1 5HZ       0.038450
     38 H14          2.1130    -1.6070    -0.0880 hc         1 5HZ       0.058200
     39 H17          0.8640     1.7510    -1.8730 ha         1 5HZ       0.117000
     40 H18          2.9380     3.1140    -1.8270 ha         1 5HZ       0.119750
     41 H19          3.9370     1.4700     2.0390 ha         1 5HZ       0.119750
     42 H20          1.8550     0.1070     1.9980 ha         1 5HZ       0.117000
     43 H21         -1.9100     0.1810    -1.9500 ha         1 5HZ       0.117000
     44 H22         -3.9690     1.5790    -1.9610 ha         1 5HZ       0.119750
     45 H23         -2.9440     3.1210     1.9410 ha         1 5HZ       0.119750
     46 H24         -0.8920     1.7230     1.9560 ha         1 5HZ       0.117000
     47 H25         -4.7630     3.7100     0.8070 ho         1 5HZ       0.464000
     48 H26          4.7670     3.6480    -0.6810 ho         1 5HZ       0.464000
@<TRIPOS>BOND
     1     1     2 1   
     2     1     8 1   
     3     1    25 1   
     4     1    26 1   
     5     2     3 1   
     6     2    27 1   
     7     2    28 1   
     8     3     4 1   
     9     3    29 1   
    10     3    30 1   
    11     4     5 1   
    12     4     9 1   
    13     4    31 1   
    14     5     6 1   
    15     5    32 1   
    16     5    33 1   
    17     6     7 1   
    18     6    34 1   
    19     6    35 1   
    20     7     8 1   
    21     7    36 1   
    22     7    37 1   
    23     8     9 1   
    24     8    38 1   
    25     9    10 2   
    26    10    11 1   
    27    10    12 1   
    28    11    13 ar  
    29    11    17 ar  
    30    12    18 ar  
    31    12    22 ar  
    32    13    14 ar  
    33    13    39 1   
    34    14    15 ar  
    35    14    40 1   
    36    15    16 ar  
    37    15    24 1   
    38    16    17 ar  
    39    16    41 1   
    40    17    42 1   
    41    18    19 ar  
    42    18    43 1   
    43    19    20 ar  
    44    19    44 1   
    45    20    21 ar  
    46    20    23 1   
    47    21    22 ar  
    48    21    45 1   
    49    22    46 1   
    50    23    47 1   
    51    24    48 1   
@<TRIPOS>SUBSTRUCTURE
     1 5HZ         1 TEMP              0 ****  ****    0 ROOT
