@<TRIPOS>MOLECULE
5I0
   85    87     1     0     0
SMALL
No Charge or Current Charge


@<TRIPOS>ATOM
      1 C11        193.9760   212.4120   211.4000 c6         1 5I0       0.076300
      2 C12        192.8450   207.0640   211.3950 c5         1 5I0       0.366300
      3 C13        194.5670   205.2880   209.3200 c6         1 5I0       0.381300
      4 NB1        195.6890   214.7430   210.8910 nv         1 5I0      -1.013500
      5 CG2        193.3920   203.7410   213.3220 c3         1 5I0       0.382300
      6 NE1        197.1900   209.7550   209.0040 nv         1 5I0      -1.026500
      7 CH2        191.1740   206.0140   214.5190 c3         1 5I0      -0.093100
      8 C21        194.3730   211.5830   210.1330 c6         1 5I0       0.134300
      9 C22        193.5670   205.6730   211.5630 c5         1 5I0       0.141300
     10 C23        194.8400   204.0820   208.3590 c6         1 5I0       0.073300
     11 C31        194.6870   210.0940   210.5070 c6         1 5I0       0.038300
     12 C32        192.6460   204.9160   212.5860 c5         1 5I0       0.167000
     13 C33        193.5500   203.7680   207.5310 c6         1 5I0       0.123300
     14 C41        193.4970   209.4430   211.2740 c6         1 5I0       0.188300
     15 C42        192.3000   206.1620   213.4720 c5         1 5I0       0.159300
     16 C43        193.0560   205.0560   206.8110 c6         1 5I0       0.144300
     17 C51        193.1210   210.2850   212.5330 c6         1 5I0       0.141300
     18 C53        192.8410   206.1940   207.8490 c6         1 5I0       0.157300
     19 C61        192.7730   211.7420   212.1260 c6         1 5I0       0.125300
     20 C63        192.4180   207.5330   207.1680 c3         1 5I0       0.165600
     21 N11        193.6190   213.8130   211.0520 nu         1 5I0      -0.474800
     22 N23        195.2830   202.8200   209.2060 ny         1 5I0      -0.808000
     23 N31        194.9780   209.2960   209.2890 nu         1 5I0      -0.473800
     24 O13        193.6240   204.8930   210.3290 os         1 5I0      -0.467000
     25 O21        195.5160   212.1780   209.4910 oh         1 5I0      -0.703000
     26 O32        191.4520   204.3670   211.9670 oh         1 5I0      -0.706000
     27 O33        193.7910   202.7470   206.5410 oh         1 5I0      -0.660000
     28 O41        193.8280   208.0880   211.6680 os         1 5I0      -0.488000
     29 O42        191.8980   207.1320   212.4830 os         1 5I0      -0.416000
     30 O43        191.8530   204.7740   206.0720 oh         1 5I0      -0.688000
     31 O51        192.0130   209.7080   213.2530 oh         1 5I0      -0.682000
     32 O53        194.0720   206.4270   208.5880 os         1 5I0      -0.514000
     33 O61        192.3970   212.4860   213.2960 oh         1 5I0      -0.652000
     34 O63        192.4460   208.6650   208.0660 oh         1 5I0      -0.767000
     35 OG2A       194.4730   204.2070   214.1070 oh         1 5I0      -0.663000
     36 OG2B       192.5120   203.0640   214.2020 oh         1 5I0      -0.663000
     37 H11        194.8310   212.4090   212.0930 h1         1 5I0       0.102700
     38 H12        192.3630   207.1880   210.4180 h2         1 5I0       0.088700
     39 H13        195.5160   205.5620   209.8050 h2         1 5I0       0.070700
     40 HB11       196.0230   213.8620   210.5120 hn         1 5I0       0.384000
     41 HB12       196.2810   215.5440   210.7240 hn         1 5I0       0.384000
     42 HE12       197.0460   210.6570   209.4440 hn         1 5I0       0.379250
     43 HE11       198.0530   209.6470   208.4920 hn         1 5I0       0.379250
     44 HH23       191.4490   205.2940   215.2980 hc         1 5I0       0.068367
     45 HH22       190.9780   206.9710   215.0150 hc         1 5I0       0.068367
     46 HH21       190.2370   205.6780   214.0600 hc         1 5I0       0.068367
     47 H21        193.5130   211.5890   209.4440 h1         1 5I0       0.071700
     48 H22        194.5830   205.8020   211.9600 h1         1 5I0       0.069700
     49 H23        195.6720   204.3270   207.6900 hx         1 5I0       0.120700
     50 H31        195.5580   210.0820   211.1790 h1         1 5I0       0.095700
     51 H33        192.7590   203.4510   208.2300 h1         1 5I0       0.092700
     52 H41        192.6260   209.4230   210.6020 h1         1 5I0       0.077700
     53 H42        193.1980   206.5360   213.9860 h1         1 5I0       0.079700
     54 H43        193.8460   205.3800   206.1170 h1         1 5I0       0.059700
     55 H51        194.0050   210.3120   213.1880 h1         1 5I0       0.064700
     56 H53        192.0450   205.9020   208.5500 h1         1 5I0       0.108700
     57 H61        191.9220   211.7050   211.4280 h1         1 5I0       0.060700
     58 H631       191.4070   207.3940   206.7590 h1         1 5I0       0.068200
     59 H632       193.0860   207.7120   206.3140 h1         1 5I0       0.068200
     60 HI33       196.2770   200.8840   209.1960 hx         1 5I0       0.112033
     61 HI31       195.3650   201.2370   207.7110 hx         1 5I0       0.112033
     62 HI32       196.9190   202.0440   208.0080 hx         1 5I0       0.112033
     63 HN11       192.6310   214.0260   211.0510 hn         1 5I0       0.373000
     64 HN24       195.8950   203.1530   209.9840 hn         1 5I0       0.506500
     65 HN23       194.4500   202.4660   209.7260 hn         1 5I0       0.506500
     66 HN31       194.1860   208.8100   208.8660 hn         1 5I0       0.402000
     67 HC12       194.5440   216.8730   211.1930 hn         1 5I0       0.384000
     68 HF11       195.5440   207.4180   207.7030 hn         1 5I0       0.379250
     69 HO21       195.3160   212.2200   208.5270 ho         1 5I0       0.485000
     70 HO32       191.1340   203.6790   212.6000 ho         1 5I0       0.549000
     71 HO33       193.4680   201.8940   206.9130 ho         1 5I0       0.494000
     72 HO43       192.0450   203.9450   205.5700 ho         1 5I0       0.547000
     73 HO51       192.0110   208.7380   213.0310 ho         1 5I0       0.538000
     74 HO61       191.9030   211.8390   213.8540 ho         1 5I0       0.490000
     75 HO63       191.8650   209.3570   207.6630 ho         1 5I0       0.534000
     76 HG2A       195.1150   203.4680   214.1650 ho         1 5I0       0.470500
     77 HG2B       192.8760   202.1600   214.3180 ho         1 5I0       0.470500
     78 HG21       193.7710   203.0260   212.5830 h2         1 5I0      -0.022300
     79 HC11       192.9590   216.2580   211.3450 hn         1 5I0       0.384000
     80 HF12       197.1600   207.9140   207.4110 hn         1 5I0       0.379250
     81 CA1        194.4050   214.8700   211.0680 cz         1 5I0       0.943600
     82 CD1        196.1470   209.0150   208.7560 cz         1 5I0       0.926600
     83 CI3        196.0080   201.6680   208.4820 c3         1 5I0       0.083900
     84 NC1        193.9310   216.0770   211.1540 nv         1 5I0      -0.592300
     85 NF1        196.2700   208.1060   207.8400 nv         1 5I0      -0.605300
@<TRIPOS>BOND
     1     1     8 1   
     2     1    19 1   
     3     1    21 1   
     4     1    37 1   
     5     2     9 1   
     6     2    28 1   
     7     2    29 1   
     8     2    38 1   
     9     3    10 1   
    10     3    24 1   
    11     3    32 1   
    12     3    39 1   
    13     4    40 1   
    14     4    41 1   
    15     4    81 2   
    16     5    12 1   
    17     5    35 1   
    18     5    36 1   
    19     5    78 1   
    20     6    42 1   
    21     6    43 1   
    22     6    82 2   
    23     7    15 1   
    24     7    44 1   
    25     7    45 1   
    26     7    46 1   
    27     8    11 1   
    28     8    25 1   
    29     8    47 1   
    30     9    12 1   
    31     9    24 1   
    32     9    48 1   
    33    10    13 1   
    34    10    22 1   
    35    10    49 1   
    36    11    14 1   
    37    11    23 1   
    38    11    50 1   
    39    12    15 1   
    40    12    26 1   
    41    13    16 1   
    42    13    27 1   
    43    13    51 1   
    44    14    17 1   
    45    14    28 1   
    46    14    52 1   
    47    15    29 1   
    48    15    53 1   
    49    16    18 1   
    50    16    30 1   
    51    16    54 1   
    52    17    19 1   
    53    17    31 1   
    54    17    55 1   
    55    18    20 1   
    56    18    32 1   
    57    18    56 1   
    58    19    33 1   
    59    19    57 1   
    60    20    34 1   
    61    20    58 1   
    62    20    59 1   
    63    21    63 1   
    64    21    81 1   
    65    22    64 1   
    66    22    65 1   
    67    22    83 1   
    68    23    66 1   
    69    23    82 1   
    70    25    69 1   
    71    26    70 1   
    72    27    71 1   
    73    30    72 1   
    74    31    73 1   
    75    33    74 1   
    76    34    75 1   
    77    35    76 1   
    78    36    77 1   
    79    60    83 1   
    80    61    83 1   
    81    62    83 1   
    82    67    84 1   
    83    68    85 1   
    84    79    84 1   
    85    80    85 1   
    86    81    84 1   
    87    82    85 1   
@<TRIPOS>SUBSTRUCTURE
     1 5I0         1 TEMP              0 ****  ****    0 ROOT
