@<TRIPOS>MOLECULE
5I0
   85    87     1     0     0
SMALL
abcg2


@<TRIPOS>ATOM
      1 C11        193.9710   212.3310   211.5020 c6         1 5I0       0.076300
      2 C12        192.8490   207.0880   211.2480 c5         1 5I0       0.366300
      3 C13        194.4530   205.2090   209.1480 c6         1 5I0       0.381300
      4 NB1        195.7400   214.5730   211.2000 nv         1 5I0      -1.013500
      5 CG2        193.9180   204.1630   213.2800 c3         1 5I0       0.382300
      6 NE1        197.1150   209.7660   209.3760 nv         1 5I0      -1.026500
      7 CH2        191.0260   205.7980   214.0710 c3         1 5I0      -0.093100
      8 C21        194.2060   211.5390   210.2190 c6         1 5I0       0.134300
      9 C22        193.6000   205.7390   211.3130 c5         1 5I0       0.141300
     10 C23        194.6050   203.9040   208.3520 c6         1 5I0       0.073300
     11 C31        194.5470   210.0820   210.5490 c6         1 5I0       0.038300
     12 C32        192.9060   204.9770   212.4630 c5         1 5I0       0.167000
     13 C33        193.3570   203.6210   207.5230 c6         1 5I0       0.123300
     14 C41        193.4130   209.4210   211.3470 c6         1 5I0       0.188300
     15 C42        192.2230   206.1400   213.2160 c5         1 5I0       0.159300
     16 C43        193.0400   204.8530   206.6650 c6         1 5I0       0.144300
     17 C51        193.2230   210.2110   212.6440 c6         1 5I0       0.141300
     18 C53        192.8880   206.0780   207.5590 c6         1 5I0       0.157300
     19 C61        192.8830   211.6760   212.3450 c6         1 5I0       0.125300
     20 C63        192.6610   207.3530   206.7780 c3         1 5I0       0.165600
     21 N11        193.6020   213.7030   211.2190 nu         1 5I0      -0.474800
     22 N23        194.9120   202.8020   209.3200 ny         1 5I0      -0.808000
     23 N31        194.8400   209.3320   209.3490 nu         1 5I0      -0.473800
     24 O13        193.5160   204.9700   210.1370 os         1 5I0      -0.467000
     25 O21        195.2750   212.1380   209.5240 oh         1 5I0      -0.703000
     26 O32        191.9610   204.1100   211.9020 oh         1 5I0      -0.706000
     27 O33        193.5750   202.5030   206.6990 oh         1 5I0      -0.660000
     28 O41        193.7720   208.0860   211.6070 os         1 5I0      -0.488000
     29 O42        191.8010   206.9810   212.1470 os         1 5I0      -0.416000
     30 O43        191.8410   204.6750   205.9620 oh         1 5I0      -0.688000
     31 O51        192.1880   209.6330   213.3920 oh         1 5I0      -0.682000
     32 O53        194.0920   206.2510   208.3000 os         1 5I0      -0.514000
     33 O61        192.7610   212.4180   213.5300 oh         1 5I0      -0.652000
     34 O63        192.5380   208.4230   207.6940 oh         1 5I0      -0.767000
     35 OG2A       194.7920   205.0430   213.9090 oh         1 5I0      -0.663000
     36 OG2B       193.1850   203.3930   214.1880 oh         1 5I0      -0.663000
     37 H11        194.9000   212.3340   212.0840 h1         1 5I0       0.102700
     38 H12        192.4190   207.3040   210.2640 h2         1 5I0       0.088700
     39 H13        195.4220   205.5000   209.5740 h2         1 5I0       0.070700
     40 HB11       196.1080   213.7570   210.7350 hn         1 5I0       0.384000
     41 HB12       196.3560   215.3660   211.2790 hn         1 5I0       0.384000
     42 HE12       196.9890   210.6980   209.7380 hn         1 5I0       0.379250
     43 HE11       198.0410   209.5390   209.0510 hn         1 5I0       0.379250
     44 HH23       191.3220   205.1740   214.9120 hc         1 5I0       0.068367
     45 HH22       190.5880   206.7100   214.4770 hc         1 5I0       0.068367
     46 HH21       190.2550   205.2750   213.5060 hc         1 5I0       0.068367
     47 H21        193.2890   211.5620   209.6160 h1         1 5I0       0.071700
     48 H22        194.6500   205.9260   211.5610 h1         1 5I0       0.069700
     49 H23        195.4790   203.9980   207.7020 hx         1 5I0       0.120700
     50 H31        195.4420   210.0690   211.1800 h1         1 5I0       0.095700
     51 H33        192.5100   203.4510   208.2010 h1         1 5I0       0.092700
     52 H41        192.4860   209.4660   210.7570 h1         1 5I0       0.077700
     53 H42        192.9580   206.6690   213.8330 h1         1 5I0       0.079700
     54 H43        193.8850   205.0260   205.9800 h1         1 5I0       0.059700
     55 H51        194.1740   210.1840   213.2000 h1         1 5I0       0.064700
     56 H53        192.0440   205.9260   208.2450 h1         1 5I0       0.108700
     57 H61        191.9440   211.6910   211.7700 h1         1 5I0       0.060700
     58 H631       191.7500   207.2370   206.1860 h1         1 5I0       0.068200
     59 H632       193.4930   207.5120   206.0800 h1         1 5I0       0.068200
     60 HI33       195.8770   200.9680   209.6080 hx         1 5I0       0.112033
     61 HI31       194.9530   201.0810   208.0910 hx         1 5I0       0.112033
     62 HI32       196.5050   201.9370   208.2550 hx         1 5I0       0.112033
     63 HN11       192.6160   213.9030   211.1300 hn         1 5I0       0.373000
     64 HN24       195.5040   203.1760   210.0650 hn         1 5I0       0.506500
     65 HN23       194.0560   202.5110   209.7990 hn         1 5I0       0.506500
     66 HN31       194.0580   208.9600   208.8060 hn         1 5I0       0.402000
     67 HC12       194.4920   216.7860   211.2430 hn         1 5I0       0.384000
     68 HF11       195.5460   207.4890   207.7700 hn         1 5I0       0.379250
     69 HO21       195.0550   212.2320   208.5920 ho         1 5I0       0.485000
     70 HO32       191.6620   203.5180   212.6030 ho         1 5I0       0.549000
     71 HO33       192.7960   201.9400   206.7180 ho         1 5I0       0.494000
     72 HO43       191.9890   204.0370   205.2560 ho         1 5I0       0.547000
     73 HO51       192.3140   209.8590   214.3180 ho         1 5I0       0.538000
     74 HO61       191.8740   212.3030   213.8830 ho         1 5I0       0.490000
     75 HO63       192.2720   209.2130   207.2110 ho         1 5I0       0.534000
     76 HG2A       195.6080   204.5830   214.1330 ho         1 5I0       0.470500
     77 HG2B       193.6690   202.5890   214.4040 ho         1 5I0       0.470500
     78 HG21       194.4640   203.5030   212.5880 h2         1 5I0      -0.022300
     79 HC11       192.9550   216.1140   211.6210 hn         1 5I0       0.384000
     80 HF12       197.1420   208.0880   207.4920 hn         1 5I0       0.379250
     81 CA1        194.4240   214.7490   211.2540 cz         1 5I0       0.943600
     82 CD1        196.0670   209.1090   208.8830 cz         1 5I0       0.926600
     83 CI3        195.6100   201.6060   208.7720 c3         1 5I0       0.083900
     84 NC1        193.9180   215.9680   211.3670 nv         1 5I0      -0.592300
     85 NF1        196.2430   208.2040   207.9300 nv         1 5I0      -0.605300
@<TRIPOS>BOND
     1     1     8 1   
     2     1    19 1   
     3     1    21 1   
     4     1    37 1   
     5     2     9 1   
     6     2    28 1   
     7     2    29 1   
     8     2    38 1   
     9     3    10 1   
    10     3    24 1   
    11     3    32 1   
    12     3    39 1   
    13     4    40 1   
    14     4    41 1   
    15     4    81 2   
    16     5    12 1   
    17     5    35 1   
    18     5    36 1   
    19     5    78 1   
    20     6    42 1   
    21     6    43 1   
    22     6    82 2   
    23     7    15 1   
    24     7    44 1   
    25     7    45 1   
    26     7    46 1   
    27     8    11 1   
    28     8    25 1   
    29     8    47 1   
    30     9    12 1   
    31     9    24 1   
    32     9    48 1   
    33    10    13 1   
    34    10    22 1   
    35    10    49 1   
    36    11    14 1   
    37    11    23 1   
    38    11    50 1   
    39    12    15 1   
    40    12    26 1   
    41    13    16 1   
    42    13    27 1   
    43    13    51 1   
    44    14    17 1   
    45    14    28 1   
    46    14    52 1   
    47    15    29 1   
    48    15    53 1   
    49    16    18 1   
    50    16    30 1   
    51    16    54 1   
    52    17    19 1   
    53    17    31 1   
    54    17    55 1   
    55    18    20 1   
    56    18    32 1   
    57    18    56 1   
    58    19    33 1   
    59    19    57 1   
    60    20    34 1   
    61    20    58 1   
    62    20    59 1   
    63    21    63 1   
    64    21    81 1   
    65    22    64 1   
    66    22    65 1   
    67    22    83 1   
    68    23    66 1   
    69    23    82 1   
    70    25    69 1   
    71    26    70 1   
    72    27    71 1   
    73    30    72 1   
    74    31    73 1   
    75    33    74 1   
    76    34    75 1   
    77    35    76 1   
    78    36    77 1   
    79    60    83 1   
    80    61    83 1   
    81    62    83 1   
    82    67    84 1   
    83    68    85 1   
    84    79    84 1   
    85    80    85 1   
    86    81    84 1   
    87    82    85 1   
@<TRIPOS>SUBSTRUCTURE
     1 5I0         1 TEMP              0 ****  ****    0 ROOT
