@<TRIPOS>MOLECULE
5I1
   74    78     1     0     0
SMALL
abcg2


@<TRIPOS>ATOM
      1 N1          -2.1400   -14.5840    40.8430 nb         1 5I1      -0.245000
      2 C2          -1.5100   -15.2150    39.8260 ca         1 5I1       0.395900
      3 N3          -0.2560   -14.9800    39.4300 nb         1 5I1      -0.260000
      4 C4           0.4730   -14.0460    40.0640 ca         1 5I1       0.299800
      5 C5          -0.1170   -13.3550    41.1380 ca         1 5I1      -0.067000
      6 CL5          0.7080   -12.1560    42.1050 cl         1 5I1      -0.200000
      7 C6          -1.4230   -13.6700    41.4810 ca         1 5I1       0.164900
      8 CAB         -1.9430   -18.3790    38.2380 c6         1 5I1       0.090000
      9 NAD         -1.6400   -19.1350    37.0270 n          1 5I1      -0.404800
     10 CAG          7.3330   -25.5240    43.6130 c3         1 5I1       0.150100
     11 CAH         -0.5360   -19.8990    36.8420 c          1 5I1       0.618700
     12 CAI          1.8280   -13.8540    39.5750 cc         1 5I1      -0.243000
     13 CAJ          1.8270   -21.2300    40.1770 ca         1 5I1      -0.001000
     14 CAK          2.4180   -20.6130    39.0670 ca         1 5I1      -0.158000
     15 CAL          1.6420   -20.1800    38.0090 ca         1 5I1      -0.046500
     16 CAM          0.2540   -20.3180    38.0400 ca         1 5I1      -0.171600
     17 CAN         -0.3300   -20.9370    39.1430 ca         1 5I1      -0.046500
     18 CAO          0.4390   -21.4000    40.2030 ca         1 5I1      -0.158000
     19 CAP          2.3870   -22.2300    42.4030 c          1 5I1       0.605100
     20 NAR          6.2580   -24.8700    42.8800 n3         1 5I1      -0.719600
     21 CAT         -2.6800   -16.4470    36.7760 c6         1 5I1      -0.094400
     22 OAU          1.2430   -22.4190    42.8030 o          1 5I1      -0.579100
     23 CAV          2.6240   -14.8290    38.8520 ca         1 5I1      -0.052800
     24 CAW          3.8490   -14.1920    38.5280 ca         1 5I1      -0.061200
     25 CAX          4.8810   -14.8370    37.8510 ca         1 5I1      -0.126000
     26 CAY          4.6790   -16.1600    37.4950 ca         1 5I1      -0.094000
     27 CAZ          3.4790   -16.8190    37.8140 ca         1 5I1      -0.141000
     28 CBA         -2.3540   -17.3020    35.5520 c6         1 5I1      -0.095400
     29 NBB         -2.2360   -16.1580    39.1810 nu         1 5I1      -0.926100
     30 CBD          2.4530   -16.1710    38.4850 ca         1 5I1      -0.049000
     31 CBE          2.5960   -12.7030    39.6420 cd         1 5I1      -0.099100
     32 CBG         -2.4850   -18.7860    35.8840 c6         1 5I1       0.088000
     33 CBH         -1.8380   -16.8680    37.9820 c6         1 5I1       0.216500
     34 CBJ          3.5970   -22.6690    43.1980 c3         1 5I1      -0.161400
     35 NBK          3.7850   -12.9030    39.0140 na         1 5I1      -0.221700
     36 CBL          3.8430   -24.1760    43.0060 c3         1 5I1      -0.075400
     37 CBM          5.0830   -24.7070    43.7370 c3         1 5I1       0.165800
     38 CBN          6.7210   -23.6160    42.3010 c3         1 5I1       0.150100
     39 H6          -1.8990   -13.1570    42.3100 h4         1 5I1       0.033100
     40 HAB         -2.9610   -18.6230    38.5610 h1         1 5I1       0.060700
     41 HABA        -1.2600   -18.6510    39.0340 h1         1 5I1       0.060700
     42 HAG          8.1820   -25.6920    42.9490 h1         1 5I1       0.030533
     43 HAGA         7.6840   -24.9240    44.4710 h1         1 5I1       0.030533
     44 HAGB         6.9900   -26.4880    43.9920 h1         1 5I1       0.030533
     45 HAK          3.4940   -20.4820    39.0410 ha         1 5I1       0.133500
     46 HAL          2.1120   -19.7260    37.1470 ha         1 5I1       0.123500
     47 HAN         -1.4030   -21.0760    39.1780 ha         1 5I1       0.123500
     48 HAO         -0.0270   -21.8870    41.0420 ha         1 5I1       0.133500
     49 HAT         -2.5110   -15.3880    36.5700 hc         1 5I1       0.048700
     50 HATA        -3.7390   -16.5650    37.0320 hc         1 5I1       0.048700
     51 HAX          5.8040   -14.3210    37.6190 ha         1 5I1       0.113000
     52 HAY          5.4570   -16.6970    36.9670 ha         1 5I1       0.111000
     53 HAZ          3.3560   -17.8540    37.5280 ha         1 5I1       0.110000
     54 HBA         -3.0250   -17.0560    34.7270 hc         1 5I1       0.056700
     55 HBAA        -1.3320   -17.1020    35.2160 hc         1 5I1       0.056700
     56 HNBB        -3.1970   -16.2390    39.4770 hn         1 5I1       0.502000
     57 HBD          1.5340   -16.6890    38.7170 ha         1 5I1       0.132000
     58 HBE          2.3660   -11.7430    40.0660 h4         1 5I1       0.225000
     59 HBG         -2.1980   -19.4110    35.0450 h1         1 5I1       0.064200
     60 HBGA        -3.5210   -19.0150    36.1560 h1         1 5I1       0.064200
     61 HBH         -0.7920   -16.6260    37.7970 h1         1 5I1       0.096700
     62 HNBI         3.6680   -21.5340    41.0060 hn         1 5I1       0.151000
     63 HBJ          4.4780   -22.0950    42.9120 hc         1 5I1       0.064200
     64 HBJA         3.3910   -22.4660    44.2500 hc         1 5I1       0.064200
     65 HNBK         4.5080   -12.2080    38.9200 hn         1 5I1       0.354000
     66 HBL          2.9610   -24.7080    43.3670 hc         1 5I1       0.062700
     67 HBLA         3.9350   -24.4070    41.9420 hc         1 5I1       0.062700
     68 HBM          4.8590   -25.6920    44.1500 h1         1 5I1       0.034700
     69 HBMA         5.3140   -24.0510    44.5970 h1         1 5I1       0.034700
     70 HBN          5.9600   -23.1890    41.6490 h1         1 5I1       0.030533
     71 HBNA         6.9770   -22.8660    43.0700 h1         1 5I1       0.030533
     72 HBNB         7.6110   -23.8030    41.7000 h1         1 5I1       0.030533
     73 NBI          2.6850   -21.6610    41.1970 ns         1 5I1      -0.148000
     74 OAE         -0.1780   -20.2840    35.7210 o          1 5I1      -0.604100
@<TRIPOS>BOND
     1     1     2 ar  
     2     1     7 ar  
     3     2     3 ar  
     4     2    29 1   
     5     3     4 ar  
     6     4     5 ar  
     7     4    12 1   
     8     5     6 1   
     9     5     7 ar  
    10     7    39 1   
    11     8     9 1   
    12     8    33 1   
    13     8    40 1   
    14     8    41 1   
    15     9    11 1   
    16     9    32 1   
    17    10    20 1   
    18    10    42 1   
    19    10    43 1   
    20    10    44 1   
    21    11    16 1   
    22    11    74 2   
    23    12    23 1   
    24    12    31 2   
    25    13    14 ar  
    26    13    18 ar  
    27    13    73 1   
    28    14    15 ar  
    29    14    45 1   
    30    15    16 ar  
    31    15    46 1   
    32    16    17 ar  
    33    17    18 ar  
    34    17    47 1   
    35    18    48 1   
    36    19    22 2   
    37    19    34 1   
    38    19    73 1   
    39    20    37 1   
    40    20    38 1   
    41    21    28 1   
    42    21    33 1   
    43    21    49 1   
    44    21    50 1   
    45    23    24 ar  
    46    23    30 ar  
    47    24    25 ar  
    48    24    35 1   
    49    25    26 ar  
    50    25    51 1   
    51    26    27 ar  
    52    26    52 1   
    53    27    30 ar  
    54    27    53 1   
    55    28    32 1   
    56    28    54 1   
    57    28    55 1   
    58    29    33 1   
    59    29    56 1   
    60    30    57 1   
    61    31    35 1   
    62    31    58 1   
    63    32    59 1   
    64    32    60 1   
    65    33    61 1   
    66    34    36 1   
    67    34    63 1   
    68    34    64 1   
    69    35    65 1   
    70    36    37 1   
    71    36    66 1   
    72    36    67 1   
    73    37    68 1   
    74    37    69 1   
    75    38    70 1   
    76    38    71 1   
    77    38    72 1   
    78    62    73 1   
@<TRIPOS>SUBSTRUCTURE
     1 5I1         1 TEMP              0 ****  ****    0 ROOT
