@<TRIPOS>MOLECULE
5I1
   74    78     1     0     0
SMALL
No Charge or Current Charge


@<TRIPOS>ATOM
      1 N1          -2.1670   -15.0700    40.8510 nb         1 5I1      -0.245000
      2 C2          -1.5540   -15.3050    39.6830 ca         1 5I1       0.395900
      3 N3          -0.2300   -15.3200    39.4540 nb         1 5I1      -0.260000
      4 C4           0.5840   -15.0760    40.5040 ca         1 5I1       0.299800
      5 C5           0.0340   -14.8560    41.7950 ca         1 5I1      -0.067000
      6 Cl5          1.0080   -14.6440    43.2560 cl         1 5I1      -0.200000
      7 C6          -1.3670   -14.8550    41.9110 ca         1 5I1       0.164900
      8 CAB         -1.9650   -17.9190    37.9300 c6         1 5I1       0.090000
      9 NAD         -1.8210   -18.8870    36.7990 n          1 5I1      -0.404800
     10 CAG          7.2430   -25.1840    44.0820 c3         1 5I1       0.150100
     11 CAH         -0.6140   -19.5800    36.5380 c          1 5I1       0.618700
     12 CAI          2.0300   -15.0530    40.2290 cc         1 5I1      -0.243000
     13 CAJ          1.9670   -20.8200    39.8260 ca         1 5I1      -0.001000
     14 CAK          2.4860   -20.5760    38.5430 ca         1 5I1      -0.158000
     15 CAL          1.6440   -20.1880    37.4880 ca         1 5I1      -0.046500
     16 CAM          0.2620   -20.0120    37.6970 ca         1 5I1      -0.171600
     17 CAN         -0.2680   -20.3110    38.9730 ca         1 5I1      -0.046500
     18 CAO          0.5760   -20.7000    40.0280 ca         1 5I1      -0.158000
     19 CAP          2.7280   -21.3810    42.2160 c          1 5I1       0.605100
     20 NAR          6.1790   -24.5490    43.2720 n3         1 5I1      -0.719600
     21 CAT         -3.1500   -16.2680    36.3780 c6         1 5I1      -0.094400
     22 OAU          1.6860   -21.1840    42.8300 o          1 5I1      -0.579100
     23 CAV          2.7700   -15.6970    39.1770 ca         1 5I1      -0.052800
     24 CAW          4.0190   -15.1380    39.1750 ca         1 5I1      -0.061200
     25 CAX          4.9990   -15.5370    38.2560 ca         1 5I1      -0.126000
     26 CAY          4.6650   -16.5390    37.3200 ca         1 5I1      -0.094000
     27 CAZ          3.3740   -17.1170    37.3250 ca         1 5I1      -0.141000
     28 CBA         -2.9090   -17.2610    35.2170 c6         1 5I1      -0.095400
     29 NBB         -2.4020   -15.5670    38.6180 nu         1 5I1      -0.926100
     30 CBD          2.4080   -16.7030    38.2670 ca         1 5I1      -0.049000
     31 CBE          2.8610   -14.0720    40.7690 cd         1 5I1      -0.099100
     32 CBG         -2.8590   -18.7130    35.7450 c6         1 5I1       0.088000
     33 CBH         -2.0660   -16.4330    37.4680 c6         1 5I1       0.216500
     34 CBJ          4.0090   -21.8190    42.9390 c3         1 5I1      -0.161400
     35 NBK          4.1310   -14.1600    40.1500 na         1 5I1      -0.221700
     36 CBL          3.9310   -23.3040    43.3880 c3         1 5I1      -0.075400
     37 CBM          5.1930   -23.8260    44.1200 c3         1 5I1       0.165800
     38 CBN          6.7390   -23.7480    42.1580 c3         1 5I1       0.150100
     39 H6          -1.8560   -14.6910    42.8700 h4         1 5I1       0.033100
     40 HAB         -2.8670   -18.1830    38.5010 h1         1 5I1       0.060700
     41 HABA        -1.1130   -17.9870    38.6170 h1         1 5I1       0.060700
     42 HAG          7.9060   -25.7890    43.4480 h1         1 5I1       0.030533
     43 HAGA         7.8530   -24.4250    44.5910 h1         1 5I1       0.030533
     44 HAGB         6.8100   -25.8450    44.8440 h1         1 5I1       0.030533
     45 HAK          3.5530   -20.6830    38.3590 ha         1 5I1       0.133500
     46 HAL          2.0740   -20.0090    36.5040 ha         1 5I1       0.123500
     47 HAN         -1.3390   -20.2570    39.1530 ha         1 5I1       0.123500
     48 HAO          0.1240   -20.9170    40.9900 ha         1 5I1       0.133500
     49 HAT         -3.1460   -15.2390    35.9950 hc         1 5I1       0.048700
     50 HATA        -4.1480   -16.4440    36.8050 hc         1 5I1       0.048700
     51 HAX          5.9870   -15.0840    38.2560 ha         1 5I1       0.113000
     52 HAY          5.4030   -16.8660    36.5910 ha         1 5I1       0.111000
     53 HAZ          3.1270   -17.8810    36.5950 ha         1 5I1       0.110000
     54 HBA         -3.7070   -17.1650    34.4680 hc         1 5I1       0.056700
     55 HBAA        -1.9660   -17.0210    34.7060 hc         1 5I1       0.056700
     56 HNBB        -3.3910   -15.4540    38.8460 hn         1 5I1       0.502000
     57 HBD          1.4180   -17.1490    38.2810 ha         1 5I1       0.132000
     58 HBE          2.6440   -13.3040    41.5070 h4         1 5I1       0.225000
     59 HBG         -2.6840   -19.4030    34.9080 h1         1 5I1       0.064200
     60 HBGA        -3.8380   -18.9780    36.1710 h1         1 5I1       0.064200
     61 HBH         -1.0980   -16.1410    37.0280 h1         1 5I1       0.096700
     62 HNBI         3.8160   -21.3800    40.5090 hn         1 5I1       0.151000
     63 HBJ          4.8710   -21.6810    42.2780 hc         1 5I1       0.064200
     64 HBJA         4.1330   -21.1960    43.8320 hc         1 5I1       0.064200
     65 HNBK         4.9410   -13.5760    40.3370 hn         1 5I1       0.354000
     66 HBL          3.0800   -23.4070    44.0720 hc         1 5I1       0.062700
     67 HBLA         3.7100   -23.9510    42.5290 hc         1 5I1       0.062700
     68 HBM          4.8430   -24.5160    44.8990 h1         1 5I1       0.034700
     69 HBMA         5.6770   -22.9900    44.6430 h1         1 5I1       0.034700
     70 HBN          5.9550   -23.4650    41.4440 h1         1 5I1       0.030533
     71 HBNA         7.2210   -22.8350    42.5320 h1         1 5I1       0.030533
     72 HBNB         7.4880   -24.3280    41.6020 h1         1 5I1       0.030533
     73 NBI          2.8790   -21.2020    40.8470 ns         1 5I1      -0.148000
     74 OAE         -0.3170   -19.9010    35.3930 o          1 5I1      -0.604100
@<TRIPOS>BOND
     1     1     2 ar  
     2     1     7 ar  
     3     2     3 ar  
     4     2    29 1   
     5     3     4 ar  
     6     4     5 ar  
     7     4    12 1   
     8     5     6 1   
     9     5     7 ar  
    10     7    39 1   
    11     8     9 1   
    12     8    33 1   
    13     8    40 1   
    14     8    41 1   
    15     9    11 1   
    16     9    32 1   
    17    10    20 1   
    18    10    42 1   
    19    10    43 1   
    20    10    44 1   
    21    11    16 1   
    22    11    74 2   
    23    12    23 1   
    24    12    31 2   
    25    13    14 ar  
    26    13    18 ar  
    27    13    73 1   
    28    14    15 ar  
    29    14    45 1   
    30    15    16 ar  
    31    15    46 1   
    32    16    17 ar  
    33    17    18 ar  
    34    17    47 1   
    35    18    48 1   
    36    19    22 2   
    37    19    34 1   
    38    19    73 1   
    39    20    37 1   
    40    20    38 1   
    41    21    28 1   
    42    21    33 1   
    43    21    49 1   
    44    21    50 1   
    45    23    24 ar  
    46    23    30 ar  
    47    24    25 ar  
    48    24    35 1   
    49    25    26 ar  
    50    25    51 1   
    51    26    27 ar  
    52    26    52 1   
    53    27    30 ar  
    54    27    53 1   
    55    28    32 1   
    56    28    54 1   
    57    28    55 1   
    58    29    33 1   
    59    29    56 1   
    60    30    57 1   
    61    31    35 1   
    62    31    58 1   
    63    32    59 1   
    64    32    60 1   
    65    33    61 1   
    66    34    36 1   
    67    34    63 1   
    68    34    64 1   
    69    35    65 1   
    70    36    37 1   
    71    36    66 1   
    72    36    67 1   
    73    37    68 1   
    74    37    69 1   
    75    38    70 1   
    76    38    71 1   
    77    38    72 1   
    78    62    73 1   
@<TRIPOS>SUBSTRUCTURE
     1 5I1         1 TEMP              0 ****  ****    0 ROOT
