@<TRIPOS>MOLECULE
5I2
   20    21     1     0     0
SMALL
abcg2


@<TRIPOS>ATOM
      1 C02          7.5930    37.3630    18.6070 ca         1 5I2      -0.069000
      2 C03          8.7940    37.2670    17.8540 ca         1 5I2      -0.005000
      3 C04          6.3440    37.4910    17.9170 ca         1 5I2       0.299000
      4 C05          7.6740    37.3160    20.0190 ca         1 5I2      -0.091000
      5 C06          8.7460    37.2680    16.4400 ca         1 5I2      -0.145000
      6 C07         10.0260    37.1610    18.5430 ca         1 5I2      -0.108000
      7 C08          6.3430    37.4850    16.5360 ca         1 5I2      -0.199000
      8 C09          7.5380    37.3660    15.8070 ca         1 5I2      -0.064000
      9 C10          8.8820    37.2090    20.6570 ca         1 5I2      -0.120000
     10 C11         10.0730    37.1380    19.9100 ca         1 5I2      -0.100000
     11 N01          5.1640    37.5590    18.6280 nv         1 5I2      -1.067000
     12 H1           6.7750    37.3510    20.6200 ha         1 5I2       0.108000
     13 H2           9.6670    37.1860    15.8770 ha         1 5I2       0.114000
     14 H3          10.9390    37.0960    17.9640 ha         1 5I2       0.112000
     15 H4           5.4040    37.5830    16.0050 ha         1 5I2       0.109000
     16 H5           7.4900    37.3650    14.7250 ha         1 5I2       0.109000
     17 H6           8.9200    37.1730    21.7370 ha         1 5I2       0.111000
     18 H7          11.0250    37.0570    20.4200 ha         1 5I2       0.112000
     19 H8           5.1910    38.0670    19.4970 hn         1 5I2       0.445500
     20 H9           4.3610    37.8310    18.0820 hn         1 5I2       0.445500
@<TRIPOS>BOND
     1     1     2 ar  
     2     1     3 ar  
     3     1     4 ar  
     4     2     5 ar  
     5     2     6 ar  
     6     3     7 ar  
     7     3    11 1   
     8     4     9 ar  
     9     4    12 1   
    10     5     8 ar  
    11     5    13 1   
    12     6    10 ar  
    13     6    14 1   
    14     7     8 ar  
    15     7    15 1   
    16     8    16 1   
    17     9    10 ar  
    18     9    17 1   
    19    10    18 1   
    20    11    19 1   
    21    11    20 1   
@<TRIPOS>SUBSTRUCTURE
     1 5I2         1 TEMP              0 ****  ****    0 ROOT
