@<TRIPOS>MOLECULE
5I2
   20    21     1     0     0
SMALL
No Charge or Current Charge


@<TRIPOS>ATOM
      1 C02          7.5930    37.3760    18.6100 ca         1 5I2      -0.069000
      2 C03          8.7910    37.2570    17.8630 ca         1 5I2      -0.005000
      3 C04          6.3570    37.5020    17.9210 ca         1 5I2       0.299000
      4 C05          7.6670    37.3640    20.0250 ca         1 5I2      -0.091000
      5 C06          8.7520    37.2630    16.4570 ca         1 5I2      -0.145000
      6 C07         10.0300    37.1320    18.5220 ca         1 5I2      -0.108000
      7 C08          6.3370    37.5040    16.5180 ca         1 5I2      -0.199000
      8 C09          7.5280    37.3850    15.7850 ca         1 5I2      -0.064000
      9 C10          8.9070    37.2390    20.6740 ca         1 5I2      -0.120000
     10 C11         10.0880    37.1230    19.9240 ca         1 5I2      -0.100000
     11 N01          5.1550    37.6260    18.5770 nv         1 5I2      -1.067000
     12 H1           6.7710    37.4480    20.6340 ha         1 5I2       0.108000
     13 H2           9.6720    37.1720    15.8830 ha         1 5I2       0.114000
     14 H3          10.9490    37.0420    17.9480 ha         1 5I2       0.112000
     15 H4           5.3940    37.5990    15.9870 ha         1 5I2       0.109000
     16 H5           7.5020    37.3890    14.6970 ha         1 5I2       0.109000
     17 H6           8.9520    37.2300    21.7610 ha         1 5I2       0.111000
     18 H7          11.0470    37.0270    20.4290 ha         1 5I2       0.112000
     19 H8           5.1420    37.7960    19.5790 hn         1 5I2       0.445500
     20 H9           4.3150    37.8580    18.0500 hn         1 5I2       0.445500
@<TRIPOS>BOND
     1     1     2 ar  
     2     1     3 ar  
     3     1     4 ar  
     4     2     5 ar  
     5     2     6 ar  
     6     3     7 ar  
     7     3    11 1   
     8     4     9 ar  
     9     4    12 1   
    10     5     8 ar  
    11     5    13 1   
    12     6    10 ar  
    13     6    14 1   
    14     7     8 ar  
    15     7    15 1   
    16     8    16 1   
    17     9    10 ar  
    18     9    17 1   
    19    10    18 1   
    20    11    19 1   
    21    11    20 1   
@<TRIPOS>SUBSTRUCTURE
     1 5I2         1 TEMP              0 ****  ****    0 ROOT
