@<TRIPOS>MOLECULE
5I4
   56    60     1     0     0
SMALL
bcc


@<TRIPOS>ATOM
      1 O1          20.7390    -5.0380   -20.1400 o          1 5I4      -0.590300
      2 C2          29.7280    -5.3480   -24.3790 c6         1 5I4       0.134400
      3 C3          28.9950    -4.0460   -24.7620 c6         1 5I4       0.110200
      4 N4          29.2540    -1.5520   -19.6970 nb         1 5I4      -0.805000
      5 C5          26.8280    -2.4520   -22.3070 cc         1 5I4       0.424800
      6 C6          25.4400    -2.0020   -22.0950 ca         1 5I4      -0.147500
      7 C           31.3020    -3.3730   -25.0830 c6         1 5I4       0.127800
      8 O           30.6410    -5.7040   -25.3790 os         1 5I4      -0.383600
      9 N           27.1230    -3.0840   -23.4780 nc         1 5I4      -0.618000
     10 C1          31.7200    -4.7880   -25.4800 c6         1 5I4       0.132400
     11 C10         23.0960    -2.5780   -21.7820 ca         1 5I4       0.063600
     12 C11         24.4310    -2.9340   -21.9320 ca         1 5I4       0.135900
     13 C12         22.6890    -3.6840   -18.9550 ca         1 5I4      -0.325500
     14 C13         23.5840    -4.7360   -18.8340 ca         1 5I4       0.217900
     15 C14         24.6240    -4.6830   -17.9270 ca         1 5I4      -0.161000
     16 C15         24.7720    -3.5620   -17.1270 ca         1 5I4      -0.091000
     17 C16         23.8720    -2.5210   -17.2530 ca         1 5I4       0.094900
     18 C17         22.8330    -2.5560   -18.1570 ca         1 5I4      -0.046000
     19 C18         27.8860    -2.2760   -21.4560 cd         1 5I4      -0.216900
     20 C19         28.0030    -1.7180   -20.1130 ca         1 5I4       0.581800
     21 C20         26.9180    -1.4140   -19.2970 ca         1 5I4      -0.416600
     22 C21         27.2330    -0.9130   -18.0430 ca         1 5I4       0.479200
     23 C22         29.4430    -1.0720   -18.4660 ca         1 5I4       0.920900
     24 C4          28.3820    -3.3920   -23.5560 cd         1 5I4       0.366700
     25 C7          25.0930    -0.6550   -22.0810 ca         1 5I4      -0.083000
     26 C8          23.7700    -0.2720   -21.9260 ca         1 5I4      -0.135000
     27 C9          22.7720    -1.2260   -21.7910 ca         1 5I4      -0.088000
     28 F           24.7510    -4.2330   -21.9120 f          1 5I4      -0.130900
     29 F1          24.0160    -1.4360   -16.4830 f          1 5I4      -0.135900
     30 F2          23.4480    -5.8140   -19.6030 f          1 5I4      -0.115900
     31 N1          22.1110    -3.5750   -21.6160 nu         1 5I4      -0.679500
     32 N2          28.4680    -0.7310   -17.6120 nb         1 5I4      -0.767000
     33 N3          30.7100    -0.9380   -18.0440 nv         1 5I4      -0.958500
     34 N5          29.9240    -3.1910   -25.4860 n7         1 5I4      -0.812200
     35 O2          20.5710    -2.5420   -19.9100 o          1 5I4      -0.590300
     36 S           21.3640    -3.7320   -20.1380 sy         1 5I4       1.305200
     37 S1          29.3100    -2.9200   -22.1840 ss         1 5I4      -0.075300
     38 H6          30.2280    -5.2480   -23.4050 h1         1 5I4       0.051700
     39 H           28.1550    -4.2900   -25.4190 h1         1 5I4       0.105700
     40 H1          31.4820    -3.2000   -24.0120 h1         1 5I4       0.039200
     41 H2          31.9270    -2.6520   -25.6120 h1         1 5I4       0.039200
     42 H3          32.0420    -4.8060   -26.5230 h1         1 5I4       0.049700
     43 H4          32.5650    -5.1160   -24.8620 h1         1 5I4       0.049700
     44 H11         25.3130    -5.5130   -17.8470 ha         1 5I4       0.162000
     45 H12         25.5820    -3.5050   -16.4120 ha         1 5I4       0.160000
     46 H13         22.1470    -1.7240   -18.2340 ha         1 5I4       0.183000
     47 H14         25.8920    -1.5600   -19.5920 ha         1 5I4       0.160000
     48 H15         26.4410    -0.6480   -17.3520 h4         1 5I4       0.027100
     49 H7          25.8670     0.0920   -22.2020 ha         1 5I4       0.147000
     50 H8          23.5090     0.7770   -21.9290 ha         1 5I4       0.148000
     51 H9          21.7390    -0.9220   -21.7010 ha         1 5I4       0.169000
     52 H10         22.3020    -4.4720   -22.0490 hn         1 5I4       0.456800
     53 H16         31.4690    -1.0600   -18.6920 hn         1 5I4       0.448300
     54 H17         30.8990    -0.4660   -17.1780 hn         1 5I4       0.448300
     55 H18         29.6410    -2.2210   -25.4580 hn         1 5I4       0.380800
     56 H5          29.0040    -6.1570   -24.2780 h1         1 5I4       0.051700
@<TRIPOS>BOND
     1     1    36 2   
     2     2     3 1   
     3     2     8 1   
     4     2    38 1   
     5     2    56 1   
     6     3    24 1   
     7     3    34 1   
     8     3    39 1   
     9     4    20 ar  
    10     4    23 ar  
    11     5     6 1   
    12     5     9 1   
    13     5    19 2   
    14     6    12 ar  
    15     6    25 ar  
    16     7    10 1   
    17     7    34 1   
    18     7    40 1   
    19     7    41 1   
    20     8    10 1   
    21     9    24 2   
    22    10    42 1   
    23    10    43 1   
    24    11    12 ar  
    25    11    27 ar  
    26    11    31 1   
    27    12    28 1   
    28    13    14 ar  
    29    13    18 ar  
    30    13    36 1   
    31    14    15 ar  
    32    14    30 1   
    33    15    16 ar  
    34    15    44 1   
    35    16    17 ar  
    36    16    45 1   
    37    17    18 ar  
    38    17    29 1   
    39    18    46 1   
    40    19    20 1   
    41    19    37 1   
    42    20    21 ar  
    43    21    22 ar  
    44    21    47 1   
    45    22    32 ar  
    46    22    48 1   
    47    23    32 ar  
    48    23    33 1   
    49    24    37 1   
    50    25    26 ar  
    51    25    49 1   
    52    26    27 ar  
    53    26    50 1   
    54    27    51 1   
    55    31    36 1   
    56    31    52 1   
    57    33    53 1   
    58    33    54 1   
    59    34    55 1   
    60    35    36 2   
@<TRIPOS>SUBSTRUCTURE
     1 5I4         1 TEMP              0 ****  ****    0 ROOT
