@<TRIPOS>MOLECULE
5I4
   56    60     1     0     0
SMALL
No Charge or Current Charge


@<TRIPOS>ATOM
      1 O1          20.6840    -4.8490   -20.3300 o          1 5I4      -0.519500
      2 C2          29.6500    -5.5410   -24.6860 c6         1 5I4       0.157600
      3 C3          29.0260    -4.1490   -25.0550 c6         1 5I4       0.110200
      4 N4          29.2130    -1.3050   -19.8740 nb         1 5I4      -0.279000
      5 C5          26.9520    -2.5530   -22.4900 cc         1 5I4       0.359500
      6 C6          25.6340    -2.0440   -22.1320 ca         1 5I4      -0.147500
      7 C           31.3960    -3.3380   -25.4230 c6         1 5I4       0.127800
      8 O           30.8760    -5.7800   -25.4160 os         1 5I4      -0.430000
      9 N           27.1820    -3.1380   -23.7050 nc         1 5I4      -0.618000
     10 C1          31.8990    -4.7920   -25.1350 c6         1 5I4       0.155600
     11 C10         23.2510    -2.4240   -21.6670 ca         1 5I4       0.202000
     12 C11         24.5240    -2.9100   -22.0510 ca         1 5I4       0.171000
     13 C12         22.5190    -3.6130   -18.8270 ca         1 5I4      -0.325500
     14 C13         23.4140    -4.6980   -18.7660 ca         1 5I4       0.253000
     15 C14         24.4070    -4.7410   -17.7730 ca         1 5I4      -0.143000
     16 C15         24.5130    -3.7010   -16.8310 ca         1 5I4      -0.073000
     17 C16         23.6260    -2.6140   -16.8940 ca         1 5I4       0.130000
     18 C17         22.6340    -2.5620   -17.8870 ca         1 5I4      -0.028000
     19 C18         28.0250    -2.4120   -21.6370 cd         1 5I4      -0.296500
     20 C19         28.0710    -1.9190   -20.2500 ca         1 5I4       0.253500
     21 C20         26.9790    -1.9950   -19.3610 ca         1 5I4      -0.268000
     22 C21         27.1280    -1.4300   -18.0850 ca         1 5I4       0.150900
     23 C22         29.2470    -0.8040   -18.6330 ca         1 5I4       0.394900
     24 C4          28.4640    -3.4700   -23.8020 cd         1 5I4       0.366700
     25 C7          25.4580    -0.6720   -21.8620 ca         1 5I4      -0.065000
     26 C8          24.1940    -0.1780   -21.5000 ca         1 5I4      -0.117000
     27 C9          23.0970    -1.0510   -21.3990 ca         1 5I4      -0.070000
     28 F           24.6890    -4.2370   -22.2810 f          1 5I4      -0.166000
     29 F1          23.7330    -1.6090   -15.9970 f          1 5I4      -0.171000
     30 F2          23.3570    -5.7020   -19.6690 f          1 5I4      -0.151000
     31 N1          22.1710    -3.3050   -21.5180 nu         1 5I4      -0.873100
     32 N2          28.2720    -0.8270   -17.7130 nb         1 5I4      -0.241000
     33 N3          30.4010    -0.1940   -18.2700 nv         1 5I4      -1.068900
     34 N5          29.9680    -3.2760   -25.8580 n7         1 5I4      -0.867400
     35 O2          20.4740    -2.3160   -19.9810 o          1 5I4      -0.519500
     36 S           21.2820    -3.5310   -20.1160 sy         1 5I4       1.163600
     37 S1          29.4700    -3.0440   -22.4120 ss         1 5I4       0.069600
     38 H6          29.8690    -5.6000   -23.6100 h1         1 5I4       0.051700
     39 H           28.1610    -4.3630   -25.7010 h1         1 5I4       0.105700
     40 H1          31.5260    -2.7360   -24.5120 h1         1 5I4       0.039200
     41 H2          32.0290    -2.8800   -26.1970 h1         1 5I4       0.039200
     42 H3          32.7810    -5.0090   -25.7540 h1         1 5I4       0.049700
     43 H4          32.2010    -4.8780   -24.0820 h1         1 5I4       0.049700
     44 H11         25.0950    -5.5810   -17.7370 ha         1 5I4       0.144000
     45 H12         25.2800    -3.7330   -16.0610 ha         1 5I4       0.142000
     46 H13         21.9640    -1.7040   -17.9180 ha         1 5I4       0.165000
     47 H14         26.0530    -2.4920   -19.6270 ha         1 5I4       0.142000
     48 H15         26.3250    -1.4590   -17.3500 h4         1 5I4       0.027100
     49 H7          26.3030     0.0110   -21.9300 ha         1 5I4       0.129000
     50 H8          24.0650     0.8820   -21.2930 ha         1 5I4       0.130000
     51 H9          22.1260    -0.6550   -21.1160 ha         1 5I4       0.151000
     52 H10         22.3510    -4.2560   -21.8160 hn         1 5I4       0.512000
     53 H16         31.0680     0.0450   -19.0000 hn         1 5I4       0.503500
     54 H17         30.4000     0.3980   -17.4420 hn         1 5I4       0.503500
     55 H18         29.6330    -2.3020   -25.8900 hn         1 5I4       0.436000
     56 H5          28.9330    -6.3410   -24.9170 h1         1 5I4       0.051700
@<TRIPOS>BOND
     1     1    36 2   
     2     2     3 1   
     3     2     8 1   
     4     2    38 1   
     5     2    56 1   
     6     3    24 1   
     7     3    34 1   
     8     3    39 1   
     9     4    20 ar  
    10     4    23 ar  
    11     5     6 1   
    12     5     9 1   
    13     5    19 2   
    14     6    12 ar  
    15     6    25 ar  
    16     7    10 1   
    17     7    34 1   
    18     7    40 1   
    19     7    41 1   
    20     8    10 1   
    21     9    24 2   
    22    10    42 1   
    23    10    43 1   
    24    11    12 ar  
    25    11    27 ar  
    26    11    31 1   
    27    12    28 1   
    28    13    14 ar  
    29    13    18 ar  
    30    13    36 1   
    31    14    15 ar  
    32    14    30 1   
    33    15    16 ar  
    34    15    44 1   
    35    16    17 ar  
    36    16    45 1   
    37    17    18 ar  
    38    17    29 1   
    39    18    46 1   
    40    19    20 1   
    41    19    37 1   
    42    20    21 ar  
    43    21    22 ar  
    44    21    47 1   
    45    22    32 ar  
    46    22    48 1   
    47    23    32 ar  
    48    23    33 1   
    49    24    37 1   
    50    25    26 ar  
    51    25    49 1   
    52    26    27 ar  
    53    26    50 1   
    54    27    51 1   
    55    31    36 1   
    56    31    52 1   
    57    33    53 1   
    58    33    54 1   
    59    34    55 1   
    60    35    36 2   
@<TRIPOS>SUBSTRUCTURE
     1 5I4         1 TEMP              0 ****  ****    0 ROOT
