@<TRIPOS>MOLECULE
5I5
   32    34     1     0     0
SMALL
No Charge or Current Charge


@<TRIPOS>ATOM
      1 N1          -2.7730     0.6400    -4.4460 nb         1 5I5      -0.305000
      2 C1          -1.5000     0.4600    -4.8220 ca         1 5I5       0.445900
      3 C2          -0.4450     0.8640    -3.9960 ca         1 5I5      -0.233800
      4 C3          -0.7200     1.4500    -2.7850 ca         1 5I5       0.148500
      5 N2          -1.9930     1.6400    -2.3840 nb         1 5I5      -0.250000
      6 C4          -2.9580     1.2240    -3.2380 ca         1 5I5       0.187900
      7 C5           0.9780     0.7960    -4.1580 cc         1 5I5      -0.005400
      8 C6           1.5150     1.3550    -3.0110 cd         1 5I5      -0.118100
      9 N3           0.4700     1.7630    -2.1410 na         1 5I5      -0.203400
     10 I            2.1710     0.0470    -5.7440 i          1 5I5      -0.135800
     11 N4          -1.3200    -0.1240    -6.0320 nv         1 5I5      -1.072900
     12 C7           1.5990     0.7480     0.6160 c5         1 5I5       0.143300
     13 C8           0.2270     1.4420     0.3860 c5         1 5I5       0.139300
     14 C9           0.6110     2.3790    -0.8130 c5         1 5I5       0.277300
     15 O3           2.0010     2.7560    -0.6030 os         1 5I5      -0.445000
     16 C10          2.5400     1.9860     0.4960 c5         1 5I5       0.125300
     17 O2           1.6540     0.1010     1.8990 oh         1 5I5      -0.677000
     18 O1          -0.1910     2.1540     1.5660 oh         1 5I5      -0.687000
     19 C11          4.0230     1.6650     0.2220 c3         1 5I5      -0.099100
     20 H4          -3.9890     1.3750    -2.9210 h5         1 5I5       0.045100
     21 H6           2.5620     1.4920    -2.7560 h4         1 5I5       0.235000
     22 HN41        -2.1130    -0.1560    -6.6670 hn         1 5I5       0.505000
     23 HN42        -0.3970    -0.0720    -6.4560 hn         1 5I5       0.505000
     24 H7           1.8010     0.0250    -0.1880 h1         1 5I5       0.044700
     25 H8          -0.5400     0.7130     0.0880 h1         1 5I5       0.077700
     26 H9          -0.0310     3.2690    -0.8270 h2         1 5I5       0.108700
     27 H10          2.4800     2.6020     1.4040 h1         1 5I5       0.083700
     28 HO2          2.4610    -0.4660     1.9070 ho         1 5I5       0.506000
     29 HO1          0.1760     1.6170     2.3110 ho         1 5I5       0.514000
     30 H111         4.6050     2.5850     0.0940 hc         1 5I5       0.046700
     31 H112         4.4640     1.1060     1.0560 hc         1 5I5       0.046700
     32 H113         4.1390     1.0610    -0.6860 hc         1 5I5       0.046700
@<TRIPOS>BOND
     1     1     2 ar  
     2     1     6 ar  
     3     2     3 ar  
     4     2    11 1   
     5     3     4 ar  
     6     3     7 1   
     7     4     5 ar  
     8     4     9 1   
     9     5     6 ar  
    10     6    20 1   
    11     7     8 2   
    12     7    10 1   
    13     8     9 1   
    14     8    21 1   
    15     9    14 1   
    16    11    22 1   
    17    11    23 1   
    18    12    13 1   
    19    12    16 1   
    20    12    17 1   
    21    12    24 1   
    22    13    14 1   
    23    13    18 1   
    24    13    25 1   
    25    14    15 1   
    26    14    26 1   
    27    15    16 1   
    28    16    19 1   
    29    16    27 1   
    30    17    28 1   
    31    18    29 1   
    32    19    30 1   
    33    19    31 1   
    34    19    32 1   
@<TRIPOS>SUBSTRUCTURE
     1 5I5         1 TEMP              0 ****  ****    0 ROOT
