@<TRIPOS>MOLECULE
5I5
   32    34     1     0     0
SMALL
bcc


@<TRIPOS>ATOM
      1 N1          -2.7410     0.7800    -4.2580 nb         1 5I5      -0.831000
      2 C1          -1.5260     0.5430    -4.7640 ca         1 5I5       0.774200
      3 C2          -0.3890     0.8530    -3.9840 ca         1 5I5      -0.364400
      4 C3          -0.6650     1.3990    -2.7250 ca         1 5I5       0.476800
      5 N2          -1.8750     1.6370    -2.2160 nb         1 5I5      -0.776000
      6 C4          -2.8460     1.3010    -3.0400 ca         1 5I5       0.713900
      7 C5           1.0340     0.7850    -4.0740 cc         1 5I5      -0.005400
      8 C6           1.5430     1.2780    -2.9090 cd         1 5I5      -0.068100
      9 N3           0.5070     1.6520    -2.0910 na         1 5I5      -0.174100
     10 I            2.2050     0.0980    -5.6440 i          1 5I5      -0.135800
     11 N4          -1.4650     0.0210    -5.9920 nv         1 5I5      -0.962500
     12 C7           1.7770     0.7140     0.6030 c5         1 5I5       0.120100
     13 C8           0.3510     1.1810     0.3450 c5         1 5I5       0.116100
     14 C9           0.5930     2.2300    -0.7530 c5         1 5I5       0.224800
     15 O3           1.8750     2.7400    -0.5580 os         1 5I5      -0.398600
     16 C10          2.5650     2.0200     0.4710 c5         1 5I5       0.102100
     17 O2           1.9070     0.0770     1.8380 oh         1 5I5      -0.554800
     18 O1          -0.1370     1.7780     1.5130 oh         1 5I5      -0.564800
     19 C11          4.0200     1.8500     0.1040 c3         1 5I5      -0.099100
     20 H4          -3.8580     1.4690    -2.6880 h5         1 5I5       0.045100
     21 H6           2.5720     1.3960    -2.6140 h4         1 5I5       0.185000
     22 HN41        -2.3190    -0.1700    -6.4880 hn         1 5I5       0.449800
     23 HN42        -0.5980    -0.1850    -6.4550 hn         1 5I5       0.449800
     24 H7           2.0640     0.0460    -0.2230 h1         1 5I5       0.044700
     25 H8          -0.3010     0.3730    -0.0070 h1         1 5I5       0.077700
     26 H9          -0.1530     3.0290    -0.7080 h2         1 5I5       0.108700
     27 H10          2.4910     2.5830     1.4090 h1         1 5I5       0.083700
     28 HO2          2.7330    -0.4160     1.8400 ho         1 5I5       0.407000
     29 HO1         -1.0550     2.0300     1.3690 ho         1 5I5       0.415000
     30 H111         4.5090     2.8110    -0.0520 hc         1 5I5       0.046700
     31 H112         4.5460     1.3480     0.9180 hc         1 5I5       0.046700
     32 H113         4.1440     1.2470    -0.7970 hc         1 5I5       0.046700
@<TRIPOS>BOND
     1     1     2 ar  
     2     1     6 ar  
     3     2     3 ar  
     4     2    11 1   
     5     3     4 ar  
     6     3     7 1   
     7     4     5 ar  
     8     4     9 1   
     9     5     6 ar  
    10     6    20 1   
    11     7     8 2   
    12     7    10 1   
    13     8     9 1   
    14     8    21 1   
    15     9    14 1   
    16    11    22 1   
    17    11    23 1   
    18    12    13 1   
    19    12    16 1   
    20    12    17 1   
    21    12    24 1   
    22    13    14 1   
    23    13    18 1   
    24    13    25 1   
    25    14    15 1   
    26    14    26 1   
    27    15    16 1   
    28    16    19 1   
    29    16    27 1   
    30    17    28 1   
    31    18    29 1   
    32    19    30 1   
    33    19    31 1   
    34    19    32 1   
@<TRIPOS>SUBSTRUCTURE
     1 5I5         1 TEMP              0 ****  ****    0 ROOT
