@<TRIPOS>MOLECULE
5I6
   36    37     1     0     0
SMALL
abcg2


@<TRIPOS>ATOM
      1 C13         28.2210   -12.7620   -20.8680 ca         1 5I6       0.114100
      2 C15         29.1550   -10.6070   -20.3900 c3         1 5I6       0.172600
      3 C16         28.6950   -10.3060   -18.9650 c3         1 5I6      -0.084200
      4 C19         26.9160   -12.2870   -20.9900 ca         1 5I6      -0.179500
      5 C20         25.8780   -13.1740   -21.2440 ca         1 5I6      -0.066500
      6 C02         23.1670   -16.0870   -18.1980 cc         1 5I6       0.661300
      7 N03         22.3080   -15.4450   -18.9140 nd         1 5I6      -0.668000
      8 C04         22.8000   -15.1500   -20.1680 cd         1 5I6       0.286500
      9 C05         21.9050   -14.3910   -21.1390 c          1 5I6       0.627500
     10 O06         22.4660   -13.8200   -22.0980 o          1 5I6      -0.703000
     11 O07         20.6890   -14.4090   -20.8870 o          1 5I6      -0.703000
     12 C08         24.0610   -15.5970   -20.4210 cc         1 5I6      -0.199300
     13 C10         26.1020   -14.5390   -21.3830 ca         1 5I6      -0.088300
     14 C11         27.4100   -14.9980   -21.2620 ca         1 5I6      -0.066500
     15 C12         28.4580   -14.1290   -21.0070 ca         1 5I6      -0.179500
     16 O14         29.3080   -11.9930   -20.6360 os         1 5I6      -0.359100
     17 C17         28.6880    -8.8310   -18.7150 c2         1 5I6      -0.219200
     18 C18         27.6010    -8.1110   -18.4650 c2         1 5I6      -0.317000
     19 S21         24.6730   -16.4140   -19.0080 ss         1 5I6      -0.258400
     20 H1          30.1440   -10.1760   -20.5540 h1         1 5I6       0.046200
     21 H2          28.4810   -10.1450   -21.1190 h1         1 5I6       0.046200
     22 H3          27.7010   -10.7210   -18.7810 hc         1 5I6       0.062700
     23 H4          29.3840   -10.7950   -18.2700 hc         1 5I6       0.062700
     24 H5          26.6820   -11.2350   -20.8920 ha         1 5I6       0.109000
     25 H6          24.8680   -12.7940   -21.3340 ha         1 5I6       0.130000
     26 H7          22.0220   -16.4370   -16.5920 hn         1 5I6       0.451000
     27 H8          23.5070   -17.2240   -16.5470 hn         1 5I6       0.451000
     28 H10         24.3460   -15.1480   -22.4550 hc         1 5I6       0.068700
     29 H11         25.3440   -16.4740   -21.8810 hc         1 5I6       0.068700
     30 H12         27.6170   -16.0570   -21.3650 ha         1 5I6       0.130000
     31 H13         29.4700   -14.5050   -20.9160 ha         1 5I6       0.109000
     32 H14         29.6530    -8.3330   -18.7600 ha         1 5I6       0.157000
     33 H15         27.6540    -7.0430   -18.2990 ha         1 5I6       0.163000
     34 H16         26.6180    -8.5650   -18.4120 ha         1 5I6       0.163000
     35 C09         24.9510   -15.4880   -21.6180 c3         1 5I6       0.055200
     36 N01         22.9850   -16.4360   -16.8940 nv         1 5I6      -1.040900
@<TRIPOS>BOND
     1     1     4 ar  
     2     1    15 ar  
     3     1    16 1   
     4     2     3 1   
     5     2    16 1   
     6     2    20 1   
     7     2    21 1   
     8     3    17 1   
     9     3    22 1   
    10     3    23 1   
    11     4     5 ar  
    12     4    24 1   
    13     5    13 ar  
    14     5    25 1   
    15     6     7 2   
    16     6    19 1   
    17     6    36 1   
    18     7     8 1   
    19     8     9 1   
    20     8    12 2   
    21     9    10 1   
    22     9    11 1   
    23    12    19 1   
    24    12    35 1   
    25    13    14 ar  
    26    13    35 1   
    27    14    15 ar  
    28    14    30 1   
    29    15    31 1   
    30    17    18 2   
    31    17    32 1   
    32    18    33 1   
    33    18    34 1   
    34    26    36 1   
    35    27    36 1   
    36    28    35 1   
    37    29    35 1   
@<TRIPOS>SUBSTRUCTURE
     1 5I6         1 TEMP              0 ****  ****    0 ROOT
