@<TRIPOS>MOLECULE
5I6
   36    37     1     0     0
SMALL
No Charge or Current Charge


@<TRIPOS>ATOM
      1 C13         28.1520   -12.7740   -20.4190 ca         1 5I6       0.114100
      2 C15         29.4150   -10.6400   -20.2290 c3         1 5I6       0.172600
      3 C16         28.5210    -9.8910   -19.2140 c3         1 5I6      -0.084200
      4 C19         27.1320   -12.2260   -21.2280 ca         1 5I6      -0.179500
      5 C20         26.0240   -13.0110   -21.5940 ca         1 5I6      -0.066500
      6 C02         23.1720   -17.2150   -18.6450 cc         1 5I6       0.661300
      7 N03         22.5860   -16.0620   -18.5230 nd         1 5I6      -0.668000
      8 C04         23.0260   -15.1860   -19.5360 cd         1 5I6       0.286500
      9 C05         22.5290   -13.7370   -19.6950 c          1 5I6       0.627500
     10 O06         22.9140   -13.0360   -20.6230 o          1 5I6      -0.703000
     11 O07         21.7170   -13.3040   -18.8820 o          1 5I6      -0.703000
     12 C08         23.9670   -15.7800   -20.3900 cc         1 5I6      -0.199300
     13 C10         25.9190   -14.3480   -21.1620 ca         1 5I6      -0.088300
     14 C11         26.9460   -14.8940   -20.3670 ca         1 5I6      -0.066500
     15 C12         28.0530   -14.1100   -20.0000 ca         1 5I6      -0.179500
     16 O14         29.2700   -12.0620   -20.0300 os         1 5I6      -0.359100
     17 C17         28.6490    -8.3850   -19.3330 c2         1 5I6      -0.219200
     18 C18         27.6610    -7.5520   -19.6950 c2         1 5I6      -0.317000
     19 S21         24.2770   -17.4410   -19.9450 ss         1 5I6      -0.258400
     20 H1          30.4590   -10.3490   -20.0510 h1         1 5I6       0.046200
     21 H2          29.1670   -10.3490   -21.2580 h1         1 5I6       0.046200
     22 H3          27.4760   -10.1920   -19.3540 hc         1 5I6       0.062700
     23 H4          28.7990   -10.2060   -18.2000 hc         1 5I6       0.062700
     24 H5          27.1800   -11.2020   -21.5830 ha         1 5I6       0.109000
     25 H6          25.2440   -12.5760   -22.2160 ha         1 5I6       0.130000
     26 H7          22.0270   -18.0370   -17.2370 hn         1 5I6       0.451000
     27 H8          23.0760   -19.1350   -18.0610 hn         1 5I6       0.451000
     28 H10         24.0420   -14.6510   -22.2240 hc         1 5I6       0.068700
     29 H11         25.0870   -16.0310   -22.1970 hc         1 5I6       0.068700
     30 H12         26.8870   -15.9280   -20.0340 ha         1 5I6       0.130000
     31 H13         28.8390   -14.5410   -19.3850 ha         1 5I6       0.109000
     32 H14         29.6400    -7.9920   -19.0890 ha         1 5I6       0.157000
     33 H15         27.8180    -6.4740   -19.7580 ha         1 5I6       0.163000
     34 H16         26.6620    -7.9150   -19.9400 ha         1 5I6       0.163000
     35 C09         24.7230   -15.2070   -21.5700 c3         1 5I6       0.055200
     36 N01         22.8700   -18.1840   -17.7790 nv         1 5I6      -1.040900
@<TRIPOS>BOND
     1     1     4 ar  
     2     1    15 ar  
     3     1    16 1   
     4     2     3 1   
     5     2    16 1   
     6     2    20 1   
     7     2    21 1   
     8     3    17 1   
     9     3    22 1   
    10     3    23 1   
    11     4     5 ar  
    12     4    24 1   
    13     5    13 ar  
    14     5    25 1   
    15     6     7 2   
    16     6    19 1   
    17     6    36 1   
    18     7     8 1   
    19     8     9 1   
    20     8    12 2   
    21     9    10 1   
    22     9    11 1   
    23    12    19 1   
    24    12    35 1   
    25    13    14 ar  
    26    13    35 1   
    27    14    15 ar  
    28    14    30 1   
    29    15    31 1   
    30    17    18 2   
    31    17    32 1   
    32    18    33 1   
    33    18    34 1   
    34    26    36 1   
    35    27    36 1   
    36    28    35 1   
    37    29    35 1   
@<TRIPOS>SUBSTRUCTURE
     1 5I6         1 TEMP              0 ****  ****    0 ROOT
