@<TRIPOS>MOLECULE
5I8
   32    34     1     0     0
SMALL
abcg2


@<TRIPOS>ATOM
      1 N          -34.1190   -15.8330   -18.8480 nb         1 5I8      -0.252000
      2 C          -33.0020   -16.3710   -14.8230 c3         1 5I8      -0.153900
      3 C1         -33.4250   -16.1890   -16.2460 ca         1 5I8       0.173800
      4 C10        -29.0390   -13.7440   -22.5410 ca         1 5I8      -0.120000
      5 C11        -30.3640   -14.1060   -22.3510 ca         1 5I8      -0.048000
      6 C12        -30.7580   -14.4890   -21.0780 ca         1 5I8      -0.150900
      7 C13        -32.0870   -14.9170   -20.6170 ce         1 5I8       0.684800
      8 C2         -34.7290   -16.4490   -16.6470 ca         1 5I8      -0.275000
      9 C3         -35.0400   -16.2530   -17.9850 ca         1 5I8       0.173800
     10 C4         -36.4190   -16.4990   -18.5060 c3         1 5I8      -0.153900
     11 C5         -32.8990   -15.6140   -18.3740 ca         1 5I8       0.399900
     12 C6         -30.5670   -14.9520   -18.7790 c5         1 5I8       0.280100
     13 C7         -29.8670   -14.5100   -20.0210 ca         1 5I8      -0.095300
     14 C8         -28.5420   -14.1510   -20.2040 ca         1 5I8      -0.098000
     15 C9         -28.1370   -13.7680   -21.4760 ca         1 5I8      -0.095000
     16 N1         -32.5100   -15.7720   -17.1130 nb         1 5I8      -0.252000
     17 N2         -31.9310   -15.1820   -19.2480 nh         1 5I8      -0.774300
     18 H1         -31.9680   -16.0660   -14.6800 hc         1 5I8       0.057700
     19 H2         -33.6370   -15.7870   -14.1550 hc         1 5I8       0.057700
     20 H3         -33.1020   -17.4150   -14.5240 hc         1 5I8       0.057700
     21 H4         -28.6980   -13.4410   -23.5220 ha         1 5I8       0.117000
     22 H5         -31.0700   -14.0920   -23.1710 ha         1 5I8       0.137000
     23 H6         -35.4750   -16.7880   -15.9420 ha         1 5I8       0.133000
     24 H7         -36.4710   -16.3220   -19.5770 hc         1 5I8       0.057700
     25 H8         -36.7300   -17.5250   -18.3050 hc         1 5I8       0.057700
     26 H9         -37.1380   -15.8450   -18.0090 hc         1 5I8       0.057700
     27 H10        -30.1360   -15.8640   -18.3600 h1         1 5I8       0.072200
     28 H11        -30.5410   -14.1900   -17.9970 h1         1 5I8       0.072200
     29 H12        -27.8370   -14.1670   -19.3820 ha         1 5I8       0.119000
     30 H13        -27.1070   -13.4840   -21.6450 ha         1 5I8       0.114000
     31 H14        -33.9150   -15.3180   -20.8400 hn         1 5I8       0.427400
     32 N3         -33.1060   -15.0010   -21.3650 n2         1 5I8      -0.783100
@<TRIPOS>BOND
     1     1     9 ar  
     2     1    11 ar  
     3     2     3 1   
     4     2    18 1   
     5     2    19 1   
     6     2    20 1   
     7     3     8 ar  
     8     3    16 ar  
     9     4     5 ar  
    10     4    15 ar  
    11     4    21 1   
    12     5     6 ar  
    13     5    22 1   
    14     6     7 1   
    15     6    13 ar  
    16     7    17 1   
    17     7    32 2   
    18     8     9 ar  
    19     8    23 1   
    20     9    10 1   
    21    10    24 1   
    22    10    25 1   
    23    10    26 1   
    24    11    16 ar  
    25    11    17 1   
    26    12    13 1   
    27    12    17 1   
    28    12    27 1   
    29    12    28 1   
    30    13    14 ar  
    31    14    15 ar  
    32    14    29 1   
    33    15    30 1   
    34    31    32 1   
@<TRIPOS>SUBSTRUCTURE
     1 5I8         1 TEMP              0 ****  ****    0 ROOT
