@<TRIPOS>MOLECULE
5I8
   32    34     1     0     0
SMALL
No Charge or Current Charge


@<TRIPOS>ATOM
      1 N          -34.1870   -15.8330   -18.8220 nb         1 5I8      -0.252000
      2 C          -33.0450   -16.4500   -14.7580 c3         1 5I8      -0.153900
      3 C1         -33.4870   -16.2380   -16.1930 ca         1 5I8       0.173800
      4 C10        -28.9900   -13.7070   -22.6250 ca         1 5I8      -0.120000
      5 C11        -30.3370   -14.0630   -22.4050 ca         1 5I8      -0.048000
      6 C12        -30.7130   -14.4570   -21.1110 ca         1 5I8      -0.150900
      7 C13        -32.0250   -14.8710   -20.5950 ce         1 5I8       0.684800
      8 C2         -34.8060   -16.4840   -16.6020 ca         1 5I8      -0.275000
      9 C3         -35.1190   -16.2650   -17.9510 ca         1 5I8       0.173800
     10 C4         -36.5150   -16.4960   -18.4960 c3         1 5I8      -0.153900
     11 C5         -32.9410   -15.6230   -18.3450 ca         1 5I8       0.399900
     12 C6         -30.5030   -14.9510   -18.8050 c5         1 5I8       0.280100
     13 C7         -29.8080   -14.4970   -20.0720 ca         1 5I8      -0.095300
     14 C8         -28.4640   -14.1460   -20.2710 ca         1 5I8      -0.098000
     15 C9         -28.0570   -13.7490   -21.5620 ca         1 5I8      -0.095000
     16 N1         -32.5550   -15.8100   -17.0650 nb         1 5I8      -0.252000
     17 N2         -31.9340   -15.1720   -19.2360 nh         1 5I8      -0.774300
     18 H1         -32.3350   -15.6760   -14.4410 hc         1 5I8       0.057700
     19 H2         -33.8980   -16.4170   -14.0690 hc         1 5I8       0.057700
     20 H3         -32.5560   -17.4240   -14.6410 hc         1 5I8       0.057700
     21 H4         -28.6670   -13.3980   -23.6170 ha         1 5I8       0.117000
     22 H5         -31.0630   -14.0330   -23.2160 ha         1 5I8       0.137000
     23 H6         -35.5580   -16.8310   -15.8980 ha         1 5I8       0.133000
     24 H7         -36.4850   -17.0590   -19.4370 hc         1 5I8       0.057700
     25 H8         -37.1320   -17.0640   -17.7910 hc         1 5I8       0.057700
     26 H9         -37.0200   -15.5420   -18.6900 hc         1 5I8       0.057700
     27 H10        -30.0430   -15.8740   -18.4250 h1         1 5I8       0.072200
     28 H11        -30.4250   -14.1790   -18.0270 h1         1 5I8       0.072200
     29 H12        -27.7520   -14.1790   -19.4490 ha         1 5I8       0.119000
     30 H13        -27.0210   -13.4720   -21.7410 ha         1 5I8       0.114000
     31 H14        -33.8370   -15.2290   -20.6750 hn         1 5I8       0.427400
     32 N3         -33.0880   -14.9150   -21.3030 n2         1 5I8      -0.783100
@<TRIPOS>BOND
     1     1     9 ar  
     2     1    11 ar  
     3     2     3 1   
     4     2    18 1   
     5     2    19 1   
     6     2    20 1   
     7     3     8 ar  
     8     3    16 ar  
     9     4     5 ar  
    10     4    15 ar  
    11     4    21 1   
    12     5     6 ar  
    13     5    22 1   
    14     6     7 1   
    15     6    13 ar  
    16     7    17 1   
    17     7    32 2   
    18     8     9 ar  
    19     8    23 1   
    20     9    10 1   
    21    10    24 1   
    22    10    25 1   
    23    10    26 1   
    24    11    16 ar  
    25    11    17 1   
    26    12    13 1   
    27    12    17 1   
    28    12    27 1   
    29    12    28 1   
    30    13    14 ar  
    31    14    15 ar  
    32    14    29 1   
    33    15    30 1   
    34    31    32 1   
@<TRIPOS>SUBSTRUCTURE
     1 5I8         1 TEMP              0 ****  ****    0 ROOT
