@<TRIPOS>MOLECULE
5I9
   58    63     1     0     0
SMALL
No Charge or Current Charge


@<TRIPOS>ATOM
      1 N1         -10.1820   -23.6410    32.0820 na         1 5I9      -0.371500
      2 N3         -11.0630   -14.2120    29.0090 ns         1 5I9      -0.145000
      3 C4          -8.9100   -25.4370    31.0600 ca         1 5I9      -0.137000
      4 C5          -9.1520   -24.0630    31.2370 ca         1 5I9      -0.042000
      5 C6          -8.3490   -23.1240    30.5540 ca         1 5I9       0.119000
      6 C7         -10.4180   -22.2840    32.2530 ca         1 5I9       0.478500
      7 C8          -9.5980   -21.3530    31.5570 ca         1 5I9       0.034000
      8 C10        -10.8690   -19.5750    32.5830 ca         1 5I9      -0.242000
      9 C13        -10.7910   -17.8100    29.9280 ca         1 5I9      -0.058000
     10 C15        -10.5120   -15.4070    29.5460 ca         1 5I9       0.020000
     11 C17         -8.7760   -16.6870    30.6930 ca         1 5I9       0.194000
     12 C20        -11.8900   -10.6650    28.9960 cx         1 5I9      -0.076900
     13 C21        -11.3840   -11.9300    26.7850 c          1 5I9       0.656100
     14 C22        -12.9180   -11.7650    28.8740 cx         1 5I9      -0.076900
     15 C24        -10.5120   -11.2440    23.8430 ca         1 5I9      -0.115500
     16 C26         -8.9680    -9.9220    22.5050 ca         1 5I9       0.148000
     17 C28         -8.9210    -9.7560    24.9290 ca         1 5I9      -0.115500
     18 C1          -7.3160   -23.5520    29.7060 ca         1 5I9      -0.096000
     19 C11         -9.8390   -19.9790    31.7210 ca         1 5I9       0.177100
     20 C12         -9.5430   -17.8620    30.5780 ca         1 5I9       0.013100
     21 C14        -11.2690   -16.5880    29.4220 ca         1 5I9      -0.172000
     22 C16         -9.2550   -15.4680    30.1870 ca         1 5I9      -0.179000
     23 C18        -10.5900   -12.9120    28.9460 c          1 5I9       0.648100
     24 C19        -11.5300   -11.9590    28.2760 cx         1 5I9      -0.337000
     25 C2          -7.0780   -24.9270    29.5330 ca         1 5I9      -0.115000
     26 C23         -9.9680   -10.6950    25.0280 ca         1 5I9      -0.047000
     27 C25        -10.0100   -10.8560    22.5870 ca         1 5I9      -0.120500
     28 C27         -8.4220    -9.3700    23.6720 ca         1 5I9      -0.120500
     29 C3          -7.8750   -25.8680    30.2100 ca         1 5I9      -0.099000
     30 C9         -11.6290   -20.5530    33.2320 ca         1 5I9       0.380900
     31 N2         -11.4130   -21.8770    33.0720 nb         1 5I9      -0.728000
     32 N4         -10.4230   -11.0380    26.3320 ns         1 5I9      -0.132000
     33 O1          -8.5810   -21.7820    30.7230 os         1 5I9      -0.290000
     34 O2          -9.0510   -19.0530    31.0700 os         1 5I9      -0.211200
     35 O3          -9.5070   -12.5370    29.3740 o          1 5I9      -0.598100
     36 O4         -12.0630   -12.6570    26.0720 o          1 5I9      -0.612100
     37 H1         -10.7640   -24.3010    32.5780 hn         1 5I9       0.349000
     38 H2         -11.9760   -14.3310    28.5920 hn         1 5I9       0.202000
     39 H3          -9.5200   -26.1740    31.5790 ha         1 5I9       0.118000
     40 H6         -11.0790   -18.5240    32.7580 ha         1 5I9       0.139000
     41 H7         -11.3880   -18.7120    29.8110 ha         1 5I9       0.135000
     42 H8         -11.4610   -10.4840    29.9800 hc         1 5I9       0.093950
     43 H9         -12.0500    -9.7640    28.4070 hc         1 5I9       0.093950
     44 H10        -13.7540   -11.5990    28.1970 hc         1 5I9       0.093950
     45 H11        -13.1780   -12.3080    29.7810 hc         1 5I9       0.093950
     46 H12        -11.3210   -11.9670    23.8720 ha         1 5I9       0.133500
     47 H13         -8.4900    -9.3220    25.8290 ha         1 5I9       0.133500
     48 H14         -6.7030   -22.8200    29.1850 ha         1 5I9       0.134000
     49 H16        -12.2370   -16.5640    28.9250 ha         1 5I9       0.129000
     50 H17         -8.6320   -14.5890    30.3050 ha         1 5I9       0.169000
     51 H18         -6.2790   -25.2630    28.8760 ha         1 5I9       0.120000
     52 H19        -10.4300   -11.2790    21.6770 ha         1 5I9       0.137500
     53 H20         -7.6140    -8.6460    23.6020 ha         1 5I9       0.137500
     54 H21         -7.6900   -26.9320    30.0760 ha         1 5I9       0.117000
     55 H22        -12.4370   -20.2710    33.9060 h4         1 5I9       0.024100
     56 H24         -9.9560   -10.5330    27.0750 hn         1 5I9       0.155000
     57 F1          -7.5690   -16.7220    31.3030 f          1 5I9      -0.161000
     58 F2          -8.4890    -9.5520    21.2970 f          1 5I9      -0.179000
@<TRIPOS>BOND
     1     1     4 1   
     2     1     6 1   
     3     1    37 1   
     4     2    10 1   
     5     2    23 1   
     6     2    38 1   
     7     3     4 ar  
     8     3    29 ar  
     9     3    39 1   
    10     4     5 ar  
    11     5    18 ar  
    12     5    33 1   
    13     6     7 ar  
    14     6    31 ar  
    15     7    19 ar  
    16     7    33 1   
    17     8    19 ar  
    18     8    30 ar  
    19     8    40 1   
    20     9    20 ar  
    21     9    21 ar  
    22     9    41 1   
    23    10    21 ar  
    24    10    22 ar  
    25    11    20 ar  
    26    11    22 ar  
    27    11    57 1   
    28    12    14 1   
    29    12    24 1   
    30    12    42 1   
    31    12    43 1   
    32    13    24 1   
    33    13    32 1   
    34    13    36 2   
    35    14    24 1   
    36    14    44 1   
    37    14    45 1   
    38    15    26 ar  
    39    15    27 ar  
    40    15    46 1   
    41    16    27 ar  
    42    16    28 ar  
    43    16    58 1   
    44    17    26 ar  
    45    17    28 ar  
    46    17    47 1   
    47    18    25 ar  
    48    18    48 1   
    49    19    34 1   
    50    20    34 1   
    51    21    49 1   
    52    22    50 1   
    53    23    24 1   
    54    23    35 2   
    55    25    29 ar  
    56    25    51 1   
    57    26    32 1   
    58    27    52 1   
    59    28    53 1   
    60    29    54 1   
    61    30    31 ar  
    62    30    55 1   
    63    32    56 1   
@<TRIPOS>SUBSTRUCTURE
     1 5I9         1 TEMP              0 ****  ****    0 ROOT
