@<TRIPOS>MOLECULE
5I9
   58    63     1     0     0
SMALL
abcg2


@<TRIPOS>ATOM
      1 N1         -10.6740   -23.6640    32.0370 na         1 5I9      -0.371500
      2 N3          -9.8810   -14.2120    28.7990 ns         1 5I9      -0.145000
      3 C4          -9.2370   -25.5980    31.6290 ca         1 5I9      -0.137000
      4 C5          -9.4700   -24.2270    31.6110 ca         1 5I9      -0.042000
      5 C6          -8.4530   -23.3770    31.1630 ca         1 5I9       0.119000
      6 C7         -10.9640   -22.3520    31.7220 ca         1 5I9       0.478500
      7 C8          -9.9200   -21.5380    31.2680 ca         1 5I9       0.034000
      8 C10        -11.5060   -19.7500    31.1020 ca         1 5I9      -0.242000
      9 C13         -9.6000   -17.8650    28.7630 ca         1 5I9      -0.058000
     10 C15         -9.7070   -15.5060    29.2950 ca         1 5I9       0.020000
     11 C17         -9.3370   -17.1250    31.0140 ca         1 5I9       0.194000
     12 C20         -9.2960   -10.5700    29.1530 cx         1 5I9      -0.076900
     13 C21        -10.3480   -11.8700    27.1550 c          1 5I9       0.656100
     14 C22        -10.7400   -10.6540    29.4420 cx         1 5I9      -0.076900
     15 C24        -11.0750   -11.4700    24.2110 ca         1 5I9      -0.115500
     16 C26        -11.3130    -9.8030    22.5120 ca         1 5I9       0.148000
     17 C28        -10.8870    -9.1250    24.7520 ca         1 5I9      -0.115500
     18 C1          -7.2360   -23.8780    30.7430 ca         1 5I9      -0.096000
     19 C11        -10.1980   -20.2210    30.9470 ca         1 5I9       0.177100
     20 C12         -9.3860   -18.1660    30.1000 ca         1 5I9       0.013100
     21 C14         -9.7590   -16.5510    28.3610 ca         1 5I9      -0.172000
     22 C16         -9.4930   -15.8030    30.6440 ca         1 5I9      -0.179000
     23 C18         -9.8520   -13.0340    29.4660 c          1 5I9       0.648100
     24 C19        -10.0870   -11.7830    28.6380 cx         1 5I9      -0.337000
     25 C2          -7.0070   -25.2540    30.7750 ca         1 5I9      -0.115000
     26 C23        -10.8620   -10.4640    25.1580 ca         1 5I9      -0.047000
     27 C25        -11.3000   -11.1330    22.8800 ca         1 5I9      -0.120500
     28 C27        -11.1140    -8.7860    23.4270 ca         1 5I9      -0.120500
     29 C3          -8.0080   -26.1080    31.2170 ca         1 5I9      -0.099000
     30 C9         -12.4610   -20.6350    31.5640 ca         1 5I9       0.380900
     31 N2         -12.2120   -21.9180    31.8670 nb         1 5I9      -0.728000
     32 N4         -10.6380   -10.7020    26.5300 ns         1 5I9      -0.132000
     33 O1          -8.6270   -22.0010    31.1580 os         1 5I9      -0.290000
     34 O2          -9.1500   -19.4680    30.5030 os         1 5I9      -0.211200
     35 O3          -9.6520   -12.9340    30.6740 o          1 5I9      -0.598100
     36 O4         -10.2900   -12.9370    26.5370 o          1 5I9      -0.612100
     37 H1         -11.4600   -24.2730    32.2130 hn         1 5I9       0.349000
     38 H2         -10.0330   -14.1110    27.7940 hn         1 5I9       0.202000
     39 H3         -10.0240   -26.2590    31.9720 ha         1 5I9       0.118000
     40 H6         -11.7640   -18.7290    30.8660 ha         1 5I9       0.139000
     41 H7          -9.6380   -18.6730    28.0440 ha         1 5I9       0.135000
     42 H8          -8.6070   -10.7900    29.9560 hc         1 5I9       0.093950
     43 H9          -8.9360    -9.8750    28.4070 hc         1 5I9       0.093950
     44 H10        -11.4360   -10.0130    28.9200 hc         1 5I9       0.093950
     45 H11        -11.0360   -10.9330    30.4430 hc         1 5I9       0.093950
     46 H12        -11.0660   -12.5040    24.5070 ha         1 5I9       0.133500
     47 H13        -10.7260    -8.3410    25.4820 ha         1 5I9       0.133500
     48 H14         -6.4760   -23.1880    30.4010 ha         1 5I9       0.134000
     49 H16         -9.9240   -16.3240    27.3160 ha         1 5I9       0.129000
     50 H17         -9.4480   -15.0270    31.3890 ha         1 5I9       0.169000
     51 H18         -6.0510   -25.6450    30.4540 ha         1 5I9       0.120000
     52 H19        -11.4650   -11.9030    22.1390 ha         1 5I9       0.137500
     53 H20        -11.1320    -7.7520    23.1100 ha         1 5I9       0.137500
     54 H21         -7.8410   -27.1770    31.2430 ha         1 5I9       0.117000
     55 H22        -13.4840   -20.3030    31.6980 h4         1 5I9       0.024100
     56 H24        -10.6430    -9.8650    27.0890 hn         1 5I9       0.155000
     57 F1          -9.1340   -17.4160    32.3180 f          1 5I9      -0.161000
     58 F2         -11.5300    -9.4820    21.2090 f          1 5I9      -0.179000
@<TRIPOS>BOND
     1     1     4 1   
     2     1     6 1   
     3     1    37 1   
     4     2    10 1   
     5     2    23 1   
     6     2    38 1   
     7     3     4 ar  
     8     3    29 ar  
     9     3    39 1   
    10     4     5 ar  
    11     5    18 ar  
    12     5    33 1   
    13     6     7 ar  
    14     6    31 ar  
    15     7    19 ar  
    16     7    33 1   
    17     8    19 ar  
    18     8    30 ar  
    19     8    40 1   
    20     9    20 ar  
    21     9    21 ar  
    22     9    41 1   
    23    10    21 ar  
    24    10    22 ar  
    25    11    20 ar  
    26    11    22 ar  
    27    11    57 1   
    28    12    14 1   
    29    12    24 1   
    30    12    42 1   
    31    12    43 1   
    32    13    24 1   
    33    13    32 1   
    34    13    36 2   
    35    14    24 1   
    36    14    44 1   
    37    14    45 1   
    38    15    26 ar  
    39    15    27 ar  
    40    15    46 1   
    41    16    27 ar  
    42    16    28 ar  
    43    16    58 1   
    44    17    26 ar  
    45    17    28 ar  
    46    17    47 1   
    47    18    25 ar  
    48    18    48 1   
    49    19    34 1   
    50    20    34 1   
    51    21    49 1   
    52    22    50 1   
    53    23    24 1   
    54    23    35 2   
    55    25    29 ar  
    56    25    51 1   
    57    26    32 1   
    58    27    52 1   
    59    28    53 1   
    60    29    54 1   
    61    30    31 ar  
    62    30    55 1   
    63    32    56 1   
@<TRIPOS>SUBSTRUCTURE
     1 5I9         1 TEMP              0 ****  ****    0 ROOT
