@<TRIPOS>MOLECULE
5IB
   44    47     1     0     0
SMALL
bcc


@<TRIPOS>ATOM
      1 N           81.7840    36.4540    71.9560 ns         1 5IB      -0.462400
      2 C           77.8030    30.6830    72.7360 c3         1 5IB       0.123700
      3 C1          79.2630    32.0980    71.5200 ca         1 5IB       0.181100
      4 C10         78.3080    29.8710    67.1940 ca         1 5IB      -0.080000
      5 C11         77.9160    29.2100    66.0300 ca         1 5IB      -0.164000
      6 C12         78.7840    28.3560    65.3690 ca         1 5IB      -0.053000
      7 C13         80.0540    28.1680    65.8990 cp         1 5IB      -0.102000
      8 C14         81.2150    27.4020    65.5120 cp         1 5IB      -0.097000
      9 C15         81.5290    26.5480    64.4600 ca         1 5IB      -0.072000
     10 C16         82.7950    25.9850    64.4290 ca         1 5IB      -0.151000
     11 C17         83.7340    26.2660    65.4260 ca         1 5IB      -0.103000
     12 C18         83.4390    27.1170    66.4830 ca         1 5IB      -0.123000
     13 C19         82.1720    27.6680    66.4920 ca         1 5IB       0.085100
     14 C2          79.5690    32.8700    72.6380 ca         1 5IB      -0.226000
     15 C20         80.4200    28.8220    67.0790 ca         1 5IB       0.132100
     16 C3          80.4300    33.9520    72.5270 ca         1 5IB      -0.061000
     17 C4          81.0070    34.2870    71.3080 ca         1 5IB      -0.188600
     18 C5          81.9720    35.4080    71.1310 c          1 5IB       0.693700
     19 C6          80.7310    33.4850    70.2010 ca         1 5IB      -0.053000
     20 C7          79.8690    32.4120    70.2910 ca         1 5IB       0.002600
     21 C9          79.5740    29.6950    67.7490 ca         1 5IB      -0.156600
     22 N1          79.5800    31.6410    69.1470 ns         1 5IB      -0.485100
     23 O1          82.8460    35.3830    70.2790 o          1 5IB      -0.575100
     24 O2          82.7030    37.4550    72.0100 oh         1 5IB      -0.375100
     25 O3          80.6500    29.7790    69.8620 o          1 5IB      -0.554100
     26 O4          81.6920    28.5240    67.4340 os         1 5IB      -0.153200
     27 H1          81.0360    36.5220    72.6300 hn         1 5IB       0.339500
     28 H2          77.1780    29.8240    72.5050 h1         1 5IB       0.045367
     29 H3          78.5400    30.3930    73.4880 h1         1 5IB       0.045367
     30 H4          77.1750    31.4800    73.1410 h1         1 5IB       0.045367
     31 H6          76.9180    29.3680    65.6440 ha         1 5IB       0.138000
     32 H7          78.4800    27.8500    64.4620 ha         1 5IB       0.140000
     33 H8          80.8040    26.3280    63.6870 ha         1 5IB       0.137000
     34 H9          83.0640    25.3170    63.6210 ha         1 5IB       0.135000
     35 H10         84.7140    25.8110    65.3750 ha         1 5IB       0.136000
     36 H11         84.1640    27.3350    67.2550 ha         1 5IB       0.156000
     37 H12         79.1420    32.6450    73.6050 ha         1 5IB       0.142000
     38 H13         80.6540    34.5120    73.4260 ha         1 5IB       0.131000
     39 H14         81.1920    33.7020    69.2460 ha         1 5IB       0.159000
     40 H15         79.2050    32.1180    68.3410 hn         1 5IB       0.325500
     41 H16         82.4270    38.1170    71.3610 ho         1 5IB       0.400000
     42 O           78.4170    31.0660    71.5190 os         1 5IB      -0.296900
     43 C8          79.9910    30.3560    69.0190 c          1 5IB       0.698700
     44 H5          77.5960    30.5200    67.6890 ha         1 5IB       0.139000
@<TRIPOS>BOND
     1     1    18 1   
     2     1    24 1   
     3     1    27 1   
     4     2    28 1   
     5     2    29 1   
     6     2    30 1   
     7     2    42 1   
     8     3    14 ar  
     9     3    20 ar  
    10     3    42 1   
    11     4     5 ar  
    12     4    21 ar  
    13     4    44 1   
    14     5     6 ar  
    15     5    31 1   
    16     6     7 ar  
    17     6    32 1   
    18     7     8 1   
    19     7    15 ar  
    20     8     9 ar  
    21     8    13 ar  
    22     9    10 ar  
    23     9    33 1   
    24    10    11 ar  
    25    10    34 1   
    26    11    12 ar  
    27    11    35 1   
    28    12    13 ar  
    29    12    36 1   
    30    13    26 1   
    31    14    16 ar  
    32    14    37 1   
    33    15    21 ar  
    34    15    26 1   
    35    16    17 ar  
    36    16    38 1   
    37    17    18 1   
    38    17    19 ar  
    39    18    23 2   
    40    19    20 ar  
    41    19    39 1   
    42    20    22 1   
    43    21    43 1   
    44    22    40 1   
    45    22    43 1   
    46    24    41 1   
    47    25    43 2   
@<TRIPOS>SUBSTRUCTURE
     1 5IB         1 TEMP              0 ****  ****    0 ROOT
