@<TRIPOS>MOLECULE
5IB
   44    47     1     0     0
SMALL
No Charge or Current Charge


@<TRIPOS>ATOM
      1 N           82.4280    35.9530    72.6260 ns         1 5IB      -0.395400
      2 C           76.4050    32.0680    71.9600 c3         1 5IB       0.146900
      3 C1          78.7360    32.6070    71.3290 ca         1 5IB       0.181100
      4 C10         78.6880    28.9730    68.1180 ca         1 5IB      -0.062000
      5 C11         78.1810    27.8760    67.3770 ca         1 5IB      -0.146000
      6 C12         78.9810    27.2080    66.4300 ca         1 5IB      -0.035000
      7 C13         80.2950    27.6650    66.2460 cp         1 5IB      -0.102000
      8 C14         81.3800    27.2220    65.3690 cp         1 5IB      -0.097000
      9 C15         81.4870    26.1940    64.4150 ca         1 5IB      -0.054000
     10 C16         82.7180    26.0480    63.7360 ca         1 5IB      -0.133000
     11 C17         83.8070    26.9140    64.0130 ca         1 5IB      -0.085000
     12 C18         83.6850    27.9420    64.9750 ca         1 5IB      -0.105000
     13 C19         82.4570    28.0650    65.6320 ca         1 5IB       0.085100
     14 C2          78.8020    33.6800    72.2410 ca         1 5IB      -0.208000
     15 C20         80.7920    28.7470    66.9780 ca         1 5IB       0.132100
     16 C3          79.9740    34.4430    72.3580 ca         1 5IB      -0.043000
     17 C4          81.1050    34.1480    71.5640 ca         1 5IB      -0.188600
     18 C5          82.3880    34.9510    71.6610 c          1 5IB       0.626700
     19 C6          81.0290    33.0720    70.6490 ca         1 5IB      -0.035000
     20 C7          79.8530    32.2970    70.5250 ca         1 5IB      -0.090000
     21 C9          80.0220    29.4390    67.9330 ca         1 5IB      -0.156600
     22 N1          79.7250    31.2000    69.6190 ns         1 5IB      -0.159000
     23 O1          83.3420    34.7420    70.9200 o          1 5IB      -0.575100
     24 O2          83.6740    36.6080    72.9740 oh         1 5IB      -0.414100
     25 O3          81.7450    30.9970    68.5400 o          1 5IB      -0.554100
     26 O4          82.1020    28.9810    66.5990 os         1 5IB      -0.153200
     27 H1          81.6910    35.9970    73.3250 hn         1 5IB       0.339500
     28 H2          75.6290    31.3420    71.6890 h1         1 5IB       0.045367
     29 H3          76.6080    31.9630    73.0330 h1         1 5IB       0.045367
     30 H4          76.0090    33.0750    71.7720 h1         1 5IB       0.045367
     31 H6          77.1580    27.5440    67.5420 ha         1 5IB       0.120000
     32 H7          78.5950    26.3660    65.8590 ha         1 5IB       0.122000
     33 H8          80.6480    25.5330    64.2070 ha         1 5IB       0.119000
     34 H9          82.8300    25.2620    62.9920 ha         1 5IB       0.117000
     35 H10         84.7470    26.7860    63.4790 ha         1 5IB       0.118000
     36 H11         84.5100    28.6130    65.1980 ha         1 5IB       0.138000
     37 H12         77.9540    33.9390    72.8680 ha         1 5IB       0.124000
     38 H13         79.9800    35.2650    73.0700 ha         1 5IB       0.113000
     39 H14         81.9000    32.8520    70.0390 ha         1 5IB       0.141000
     40 H15         78.8110    30.7690    69.6500 hn         1 5IB       0.159000
     41 H16         83.4510    37.5680    72.9320 ho         1 5IB       0.439000
     42 O           77.5960    31.8350    71.1890 os         1 5IB      -0.320100
     43 C8          80.5960    30.6090    68.7090 c          1 5IB       0.631700
     44 H5          78.0210    29.4470    68.8350 ha         1 5IB       0.121000
@<TRIPOS>BOND
     1     1    18 1   
     2     1    24 1   
     3     1    27 1   
     4     2    28 1   
     5     2    29 1   
     6     2    30 1   
     7     2    42 1   
     8     3    14 ar  
     9     3    20 ar  
    10     3    42 1   
    11     4     5 ar  
    12     4    21 ar  
    13     4    44 1   
    14     5     6 ar  
    15     5    31 1   
    16     6     7 ar  
    17     6    32 1   
    18     7     8 1   
    19     7    15 ar  
    20     8     9 ar  
    21     8    13 ar  
    22     9    10 ar  
    23     9    33 1   
    24    10    11 ar  
    25    10    34 1   
    26    11    12 ar  
    27    11    35 1   
    28    12    13 ar  
    29    12    36 1   
    30    13    26 1   
    31    14    16 ar  
    32    14    37 1   
    33    15    21 ar  
    34    15    26 1   
    35    16    17 ar  
    36    16    38 1   
    37    17    18 1   
    38    17    19 ar  
    39    18    23 2   
    40    19    20 ar  
    41    19    39 1   
    42    20    22 1   
    43    21    43 1   
    44    22    40 1   
    45    22    43 1   
    46    24    41 1   
    47    25    43 2   
@<TRIPOS>SUBSTRUCTURE
     1 5IB         1 TEMP              0 ****  ****    0 ROOT
