@<TRIPOS>MOLECULE
5IE
   58    62     1     0     0
SMALL
abcg2


@<TRIPOS>ATOM
      1 N1          10.4280   -23.5700   -31.8360 nu         1 5IE      -0.926900
      2 N3           9.8000   -21.5270   -30.8780 nb         1 5IE      -0.254000
      3 C4           8.0580   -23.8850   -31.1750 ca         1 5IE      -0.149000
      4 C5           9.2810   -24.3550   -31.6670 ca         1 5IE       0.313000
      5 C6           9.3890   -25.7040   -32.0370 ca         1 5IE      -0.149000
      6 C7          10.7150   -22.2820   -31.4920 ca         1 5IE       0.412900
      7 C8          12.2790   -20.6370   -31.4910 ca         1 5IE       0.171900
      8 C10         10.1550   -20.2930   -30.5640 ca         1 5IE       0.386300
      9 C13          9.8170   -16.5700   -27.9670 ca         1 5IE      -0.171000
     10 C15          9.3740   -15.9370   -30.2570 ca         1 5IE      -0.177000
     11 C17          9.7740   -13.1110   -29.2480 c          1 5IE       0.648100
     12 C20         10.3390   -11.8180   -27.0230 c          1 5IE       0.655100
     13 C21          9.1710   -10.6470   -29.0350 cx         1 5IE      -0.076900
     14 C22         10.8840   -10.3080   -25.1200 ca         1 5IE      -0.051000
     15 C24         10.9470    -8.5790   -23.4260 ca         1 5IE      -0.122000
     16 C26         11.5470   -10.8540   -22.8650 ca         1 5IE      -0.122000
     17 C1           8.3070   -26.5610   -31.9160 ca         1 5IE      -0.084000
     18 C11          9.3820   -18.2740   -29.6020 ca         1 5IE       0.017100
     19 C12          9.6750   -17.9070   -28.2980 ca         1 5IE      -0.055000
     20 C14          9.6720   -15.5720   -28.9400 ca         1 5IE       0.021000
     21 C16          9.2340   -17.2780   -30.5550 ca         1 5IE       0.191000
     22 C18         10.0150   -11.8150   -28.4960 cx         1 5IE      -0.337000
     23 C19         10.6040   -10.7130   -29.3810 cx         1 5IE      -0.076900
     24 C2           7.0900   -26.0940   -31.4240 ca         1 5IE      -0.139000
     25 C23         10.7090    -8.9760   -24.7330 ca         1 5IE      -0.110500
     26 C25         11.3580    -9.5320   -22.5120 ca         1 5IE       0.151000
     27 C27         11.3120   -11.2470   -24.1780 ca         1 5IE      -0.110500
     28 C3           6.9800   -24.7580   -31.0590 ca         1 5IE      -0.084000
     29 C9          11.4120   -19.7670   -30.8460 ca         1 5IE      -0.333000
     30 F1           8.9490   -17.6370   -31.8250 f          1 5IE      -0.162000
     31 F2          11.5850    -9.1550   -21.2270 f          1 5IE      -0.179000
     32 N2          11.9610   -21.8840   -31.8210 nb         1 5IE      -0.264000
     33 N4           9.8380   -14.2500   -28.5190 ns         1 5IE      -0.145000
     34 N5          10.6390   -10.6150   -26.4760 ns         1 5IE      -0.134000
     35 O1           9.1700   -19.6030   -29.9310 os         1 5IE      -0.337400
     36 O2           9.5370   -13.0800   -30.4530 o          1 5IE      -0.598100
     37 O3          10.3200   -12.8500   -26.3450 o          1 5IE      -0.612100
     38 H1          11.2120   -24.0380   -32.2680 hn         1 5IE       0.511000
     39 H2           7.9560   -22.8530   -30.8870 ha         1 5IE       0.132000
     40 H3          10.3330   -26.0750   -32.4190 ha         1 5IE       0.132000
     41 H4          13.2800   -20.3090   -31.7510 h4         1 5IE       0.023100
     42 H5          10.0470   -16.2910   -26.9470 ha         1 5IE       0.130000
     43 H6           9.2530   -15.1980   -31.0310 ha         1 5IE       0.170000
     44 H7           8.8250    -9.9260   -28.3070 hc         1 5IE       0.093700
     45 H8           8.4540   -10.9220   -29.7940 hc         1 5IE       0.093700
     46 H9          10.8110    -7.5500   -23.1210 ha         1 5IE       0.138000
     47 H10         11.8780   -11.5700   -22.1250 ha         1 5IE       0.138000
     48 H11          8.4170   -27.5980   -32.2060 ha         1 5IE       0.112500
     49 H12          9.7900   -18.6780   -27.5480 ha         1 5IE       0.136000
     50 H13         10.8630   -11.0330   -30.3790 hc         1 5IE       0.093700
     51 H14         11.3050   -10.0310   -28.9220 hc         1 5IE       0.093700
     52 H15          6.2440   -26.7620   -31.3290 ha         1 5IE       0.114000
     53 H16         10.3800    -8.2460   -25.4630 ha         1 5IE       0.132500
     54 H17         11.4620   -12.2730   -24.4640 ha         1 5IE       0.132500
     55 H18          6.0410   -24.3770   -30.6770 ha         1 5IE       0.112500
     56 H19         11.7040   -18.7620   -30.5870 ha         1 5IE       0.145000
     57 H20         10.0290   -14.0930   -27.5270 hn         1 5IE       0.203000
     58 H21         10.5920    -9.8050   -27.0720 hn         1 5IE       0.156000
@<TRIPOS>BOND
     1     1     4 1   
     2     1     6 1   
     3     1    38 1   
     4     2     6 ar  
     5     2     8 ar  
     6     3     4 ar  
     7     3    28 ar  
     8     3    39 1   
     9     4     5 ar  
    10     5    17 ar  
    11     5    40 1   
    12     6    32 ar  
    13     7    29 ar  
    14     7    32 ar  
    15     7    41 1   
    16     8    29 ar  
    17     8    35 1   
    18     9    19 ar  
    19     9    20 ar  
    20     9    42 1   
    21    10    20 ar  
    22    10    21 ar  
    23    10    43 1   
    24    11    22 1   
    25    11    33 1   
    26    11    36 2   
    27    12    22 1   
    28    12    34 1   
    29    12    37 2   
    30    13    22 1   
    31    13    23 1   
    32    13    44 1   
    33    13    45 1   
    34    14    25 ar  
    35    14    27 ar  
    36    14    34 1   
    37    15    25 ar  
    38    15    26 ar  
    39    15    46 1   
    40    16    26 ar  
    41    16    27 ar  
    42    16    47 1   
    43    17    24 ar  
    44    17    48 1   
    45    18    19 ar  
    46    18    21 ar  
    47    18    35 1   
    48    19    49 1   
    49    20    33 1   
    50    21    30 1   
    51    22    23 1   
    52    23    50 1   
    53    23    51 1   
    54    24    28 ar  
    55    24    52 1   
    56    25    53 1   
    57    26    31 1   
    58    27    54 1   
    59    28    55 1   
    60    29    56 1   
    61    33    57 1   
    62    34    58 1   
@<TRIPOS>SUBSTRUCTURE
     1 5IE         1 TEMP              0 ****  ****    0 ROOT
