@<TRIPOS>MOLECULE
5IE
   58    62     1     0     0
SMALL
No Charge or Current Charge


@<TRIPOS>ATOM
      1 N1           8.9820   -22.9490   -32.6280 nu         1 5IE      -0.926900
      2 N3           9.9340   -21.4020   -31.1350 nb         1 5IE      -0.254000
      3 C4           7.5600   -23.3270   -30.6530 ca         1 5IE      -0.149000
      4 C5           8.1950   -23.7840   -31.8250 ca         1 5IE       0.313000
      5 C6           8.0040   -25.1170   -32.2300 ca         1 5IE      -0.149000
      6 C7           9.7410   -21.8090   -32.4010 ca         1 5IE       0.412900
      7 C8          10.9860   -20.1370   -33.3400 ca         1 5IE       0.171900
      8 C10         10.6790   -20.2970   -30.9630 ca         1 5IE       0.386300
      9 C13         12.3940   -16.7760   -28.2950 ca         1 5IE      -0.171000
     10 C15         10.3360   -16.1870   -29.4410 ca         1 5IE      -0.177000
     11 C17         11.0620   -13.2620   -28.5640 c          1 5IE       0.648100
     12 C20         11.3440   -11.8230   -26.5350 c          1 5IE       0.655100
     13 C21         11.9840   -10.8520   -28.8570 cx         1 5IE      -0.076900
     14 C22          9.4930   -10.6070   -25.2260 ca         1 5IE      -0.051000
     15 C24          7.5800    -9.3650   -24.3420 ca         1 5IE      -0.122000
     16 C26          9.1570   -10.4040   -22.8110 ca         1 5IE      -0.122000
     17 C1           7.2120   -25.9920   -31.4640 ca         1 5IE      -0.084000
     18 C11         11.0760   -18.5150   -29.3750 ca         1 5IE       0.017100
     19 C12         12.1980   -18.1290   -28.6260 ca         1 5IE      -0.055000
     20 C14         11.4720   -15.7930   -28.7000 ca         1 5IE       0.021000
     21 C16         10.1380   -17.5370   -29.7730 ca         1 5IE       0.191000
     22 C18         11.7230   -12.0600   -27.9640 cx         1 5IE      -0.337000
     23 C19         13.1400   -11.7130   -28.4070 cx         1 5IE      -0.076900
     24 C2           6.5960   -25.5320   -30.2890 ca         1 5IE      -0.139000
     25 C23          8.3260    -9.8440   -25.4340 ca         1 5IE      -0.110500
     26 C25          7.9970    -9.6470   -23.0340 ca         1 5IE       0.151000
     27 C27          9.9050   -10.8840   -23.9020 ca         1 5IE      -0.110500
     28 C3           6.7660   -24.1980   -29.8850 ca         1 5IE      -0.084000
     29 C9          11.2440   -19.6250   -32.0620 ca         1 5IE      -0.333000
     30 F1           9.0290   -17.8850   -30.4660 f          1 5IE      -0.162000
     31 F2           7.2820    -9.1870   -21.9840 f          1 5IE      -0.179000
     32 N2          10.2300   -21.2360   -33.5130 nb         1 5IE      -0.264000
     33 N4          11.7390   -14.4470   -28.3280 ns         1 5IE      -0.145000
     34 N5          10.1970   -11.0590   -26.3780 ns         1 5IE      -0.134000
     35 O1          10.9090   -19.8500   -29.6800 os         1 5IE      -0.337400
     36 O2          10.0150   -13.1620   -29.1880 o          1 5IE      -0.598100
     37 O3          12.0090   -12.2950   -25.6210 o          1 5IE      -0.612100
     38 H1           9.0860   -23.2860   -33.5850 hn         1 5IE       0.511000
     39 H2           7.6590   -22.2930   -30.3390 ha         1 5IE       0.132000
     40 H3           8.4770   -25.4830   -33.1370 ha         1 5IE       0.132000
     41 H4          11.3910   -19.6670   -34.2350 h4         1 5IE       0.023100
     42 H5          13.2730   -16.4940   -27.7190 ha         1 5IE       0.130000
     43 H6           9.5920   -15.4690   -29.7680 ha         1 5IE       0.170000
     44 H7          11.9060    -9.8550   -28.4270 hc         1 5IE       0.093700
     45 H8          11.6910   -10.9100   -29.9040 hc         1 5IE       0.093700
     46 H9           6.6800    -8.7770   -24.5090 ha         1 5IE       0.138000
     47 H10          9.4740   -10.6170   -21.7940 ha         1 5IE       0.138000
     48 H11          7.0760   -27.0230   -31.7820 ha         1 5IE       0.112500
     49 H12         12.9200   -18.8780   -28.3060 ha         1 5IE       0.136000
     50 H13         13.6220   -12.3350   -29.1590 hc         1 5IE       0.093700
     51 H14         13.8240   -11.2930   -27.6700 hc         1 5IE       0.093700
     52 H15          5.9810   -26.2060   -29.6960 ha         1 5IE       0.114000
     53 H16          7.9930    -9.6200   -26.4460 ha         1 5IE       0.132500
     54 H17         10.7980   -11.4660   -23.6940 ha         1 5IE       0.132500
     55 H18          6.2800   -23.8360   -28.9820 ha         1 5IE       0.112500
     56 H19         11.8640   -18.7430   -31.9330 ha         1 5IE       0.145000
     57 H20         12.5840   -14.3290   -27.7860 hn         1 5IE       0.203000
     58 H21          9.7810   -10.7660   -27.2530 hn         1 5IE       0.156000
@<TRIPOS>BOND
     1     1     4 1   
     2     1     6 1   
     3     1    38 1   
     4     2     6 ar  
     5     2     8 ar  
     6     3     4 ar  
     7     3    28 ar  
     8     3    39 1   
     9     4     5 ar  
    10     5    17 ar  
    11     5    40 1   
    12     6    32 ar  
    13     7    29 ar  
    14     7    32 ar  
    15     7    41 1   
    16     8    29 ar  
    17     8    35 1   
    18     9    19 ar  
    19     9    20 ar  
    20     9    42 1   
    21    10    20 ar  
    22    10    21 ar  
    23    10    43 1   
    24    11    22 1   
    25    11    33 1   
    26    11    36 2   
    27    12    22 1   
    28    12    34 1   
    29    12    37 2   
    30    13    22 1   
    31    13    23 1   
    32    13    44 1   
    33    13    45 1   
    34    14    25 ar  
    35    14    27 ar  
    36    14    34 1   
    37    15    25 ar  
    38    15    26 ar  
    39    15    46 1   
    40    16    26 ar  
    41    16    27 ar  
    42    16    47 1   
    43    17    24 ar  
    44    17    48 1   
    45    18    19 ar  
    46    18    21 ar  
    47    18    35 1   
    48    19    49 1   
    49    20    33 1   
    50    21    30 1   
    51    22    23 1   
    52    23    50 1   
    53    23    51 1   
    54    24    28 ar  
    55    24    52 1   
    56    25    53 1   
    57    26    31 1   
    58    27    54 1   
    59    28    55 1   
    60    29    56 1   
    61    33    57 1   
    62    34    58 1   
@<TRIPOS>SUBSTRUCTURE
     1 5IE         1 TEMP              0 ****  ****    0 ROOT
