@<TRIPOS>MOLECULE
5IF
   50    51     1     0     0
SMALL
No Charge or Current Charge


@<TRIPOS>ATOM
      1 C13        101.8150    42.1930   -20.9620 ca         1 5IF      -0.108300
      2 C15        103.6900    43.6640   -21.4870 ca         1 5IF      -0.098500
      3 C17        103.4590    45.5860   -23.1330 cp         1 5IF      -0.032000
      4 C20        104.5370    47.8090   -24.5570 ca         1 5IF      -0.083300
      5 C21        105.1180    48.9940   -25.3190 c3         1 5IF       0.206900
      6 C24        103.0380    45.8860   -24.4530 ca         1 5IF      -0.101500
      7 C26        101.0080    42.9330   -21.8470 ca         1 5IF      -0.087500
      8 C02        100.3260    42.0710   -18.0920 c          1 5IF       0.603100
      9 C03         99.0340    42.4770   -17.3100 c3         1 5IF      -0.120000
     10 C04         99.0500    41.7800   -15.9220 c3         1 5IF      -0.085767
     11 C05         99.0350    44.0180   -17.1200 c3         1 5IF      -0.085767
     12 C06         97.7230    42.0710   -18.0520 c3         1 5IF      -0.085767
     13 C08        101.2390    41.0010   -20.1970 c3         1 5IF       0.104000
     14 C09        100.7440    39.8880   -21.1670 c          1 5IF       0.571100
     15 C14        103.1600    42.5680   -20.7850 ca         1 5IF      -0.087500
     16 C16        102.8930    44.4170   -22.3850 cp         1 5IF      -0.021000
     17 C18        104.4350    46.4300   -22.5450 ca         1 5IF      -0.101500
     18 C19        104.9660    47.5270   -23.2460 ca         1 5IF      -0.089000
     19 C23        103.5690    46.9820   -25.1550 ca         1 5IF      -0.089000
     20 C25        101.5400    44.0270   -22.5490 ca         1 5IF      -0.098500
     21 N07        100.1490    41.4330   -19.3000 ns         1 5IF      -0.501900
     22 N10        101.7110    39.3360   -21.9960 ns         1 5IF      -0.358400
     23 O01        101.4480    42.2980   -17.6590 o          1 5IF      -0.606100
     24 O11        101.3280    38.4310   -23.0580 oh         1 5IF      -0.441100
     25 O12         99.5760    39.5160   -21.2360 o          1 5IF      -0.624100
     26 O22        104.3350    50.1700   -25.0830 oh         1 5IF      -0.661000
     27 H1         104.7350    43.9240   -21.3410 ha         1 5IF       0.118000
     28 H2         105.1380    48.7590   -26.3920 h1         1 5IF       0.028200
     29 H3         106.1560    49.1570   -25.0000 h1         1 5IF       0.028200
     30 H4         102.3010    45.2560   -24.9450 ha         1 5IF       0.115500
     31 H5          99.9630    42.6640   -21.9910 ha         1 5IF       0.115000
     32 H6          99.9330    42.0760   -15.3420 hc         1 5IF       0.043478
     33 H7          98.1600    42.0430   -15.3380 hc         1 5IF       0.043478
     34 H8          99.0720    40.6890   -16.0350 hc         1 5IF       0.043478
     35 H9          99.9170    44.3460   -16.5570 hc         1 5IF       0.043478
     36 H10         99.0440    44.5300   -18.0900 hc         1 5IF       0.043478
     37 H11         98.1440    44.3480   -16.5700 hc         1 5IF       0.043478
     38 H12         96.8410    42.3730   -17.4750 hc         1 5IF       0.043478
     39 H13         97.6540    42.5560   -19.0340 hc         1 5IF       0.043478
     40 H14         97.6650    40.9840   -18.1950 hc         1 5IF       0.043478
     41 H15        102.0300    40.5450   -19.5860 h1         1 5IF       0.087700
     42 H16        103.7990    42.0130   -20.1020 ha         1 5IF       0.115000
     43 H17        104.7740    46.2440   -21.5300 ha         1 5IF       0.115500
     44 H18        105.7100    48.1600   -22.7680 ha         1 5IF       0.114500
     45 H19        103.2290    47.1870   -26.1680 ha         1 5IF       0.114500
     46 H20        100.8900    44.5880   -23.2160 ha         1 5IF       0.118000
     47 H21         99.1970    41.2420   -19.5860 hn         1 5IF       0.341500
     48 H22        102.6300    39.7720   -22.0720 hn         1 5IF       0.362500
     49 H23        100.3430    38.5210   -23.0690 ho         1 5IF       0.477000
     50 H24        104.7550    50.8950   -25.5970 ho         1 5IF       0.439000
@<TRIPOS>BOND
     1     1     7 ar  
     2     1    13 1   
     3     1    15 ar  
     4     2    15 ar  
     5     2    16 ar  
     6     2    27 1   
     7     3     6 ar  
     8     3    16 1   
     9     3    17 ar  
    10     4     5 1   
    11     4    18 ar  
    12     4    19 ar  
    13     5    26 1   
    14     5    28 1   
    15     5    29 1   
    16     6    19 ar  
    17     6    30 1   
    18     7    20 ar  
    19     7    31 1   
    20     8     9 1   
    21     8    21 1   
    22     8    23 2   
    23     9    10 1   
    24     9    11 1   
    25     9    12 1   
    26    10    32 1   
    27    10    33 1   
    28    10    34 1   
    29    11    35 1   
    30    11    36 1   
    31    11    37 1   
    32    12    38 1   
    33    12    39 1   
    34    12    40 1   
    35    13    14 1   
    36    13    21 1   
    37    13    41 1   
    38    14    22 1   
    39    14    25 2   
    40    15    42 1   
    41    16    20 ar  
    42    17    18 ar  
    43    17    43 1   
    44    18    44 1   
    45    19    45 1   
    46    20    46 1   
    47    21    47 1   
    48    22    24 1   
    49    22    48 1   
    50    24    49 1   
    51    26    50 1   
@<TRIPOS>SUBSTRUCTURE
     1 5IF         1 TEMP              0 ****  ****    0 ROOT
