@<TRIPOS>MOLECULE
5IF
   50    51     1     0     0
SMALL
abcg2


@<TRIPOS>ATOM
      1 C13        101.8650    42.3490   -20.8880 ca         1 5IF      -0.108300
      2 C15        103.7610    43.5500   -21.7800 ca         1 5IF      -0.098500
      3 C17        103.4710    45.6420   -23.1310 cp         1 5IF      -0.032000
      4 C20        104.5310    47.7790   -24.6410 ca         1 5IF      -0.083300
      5 C21        105.0760    48.9330   -25.4290 c3         1 5IF       0.206900
      6 C24        102.7910    46.1420   -24.2490 ca         1 5IF      -0.101500
      7 C26        101.0190    43.3040   -21.4460 ca         1 5IF      -0.087500
      8 C02        100.2240    42.0720   -18.1520 c          1 5IF       0.603100
      9 C03         98.9090    42.3930   -17.4250 c3         1 5IF      -0.120000
     10 C04         98.9510    41.6820   -16.0620 c3         1 5IF      -0.085767
     11 C05         98.8650    43.9170   -17.2220 c3         1 5IF      -0.085767
     12 C06         97.6570    41.9500   -18.1910 c3         1 5IF      -0.085767
     13 C08        101.3090    41.1470   -20.1370 c3         1 5IF       0.104000
     14 C09        100.9030    40.0760   -21.1450 c          1 5IF       0.571100
     15 C14        103.2400    42.4850   -21.0610 ca         1 5IF      -0.087500
     16 C16        102.9200    44.5120   -22.3520 cp         1 5IF      -0.021000
     17 C18        104.6910    46.2330   -22.7850 ca         1 5IF      -0.101500
     18 C19        105.2090    47.2850   -23.5270 ca         1 5IF      -0.089000
     19 C23        103.3150    47.1910   -24.9910 ca         1 5IF      -0.089000
     20 C25        101.5400    44.3690   -22.1670 ca         1 5IF      -0.098500
     21 N07        100.1390    41.4480   -19.3440 ns         1 5IF      -0.501900
     22 N10        101.8410    39.1770   -21.4410 ns         1 5IF      -0.358400
     23 O01        101.3140    42.3740   -17.6650 o          1 5IF      -0.606100
     24 O11        101.6090    38.2840   -22.4820 oh         1 5IF      -0.441100
     25 O12         99.7880    40.0400   -21.6740 o          1 5IF      -0.624100
     26 O22        104.4530    50.1420   -24.9580 oh         1 5IF      -0.661000
     27 H1         104.8320    43.6270   -21.9130 ha         1 5IF       0.118000
     28 H2         104.8610    48.7970   -26.4930 h1         1 5IF       0.028200
     29 H3         106.1610    48.9960   -25.3000 h1         1 5IF       0.028200
     30 H4         101.8580    45.6870   -24.5550 ha         1 5IF       0.115500
     31 H5          99.9490    43.2250   -21.3070 ha         1 5IF       0.115000
     32 H6          99.8260    41.9890   -15.4900 hc         1 5IF       0.043478
     33 H7          98.0550    41.9330   -15.4910 hc         1 5IF       0.043478
     34 H8          98.9820    40.5980   -16.1890 hc         1 5IF       0.043478
     35 H9          99.7290    44.2600   -16.6540 hc         1 5IF       0.043478
     36 H10         98.8540    44.4370   -18.1830 hc         1 5IF       0.043478
     37 H11         97.9590    44.1880   -16.6770 hc         1 5IF       0.043478
     38 H12         96.7720    42.2110   -17.6090 hc         1 5IF       0.043478
     39 H13         97.5730    42.4530   -19.1570 hc         1 5IF       0.043478
     40 H14         97.6380    40.8700   -18.3510 hc         1 5IF       0.043478
     41 H15        102.0890    40.7550   -19.4840 h1         1 5IF       0.087700
     42 H16        103.9090    41.7480   -20.6310 ha         1 5IF       0.115000
     43 H17        105.2320    45.8780   -21.9170 ha         1 5IF       0.115500
     44 H18        106.1530    47.7320   -23.2380 ha         1 5IF       0.114500
     45 H19        102.7790    47.5520   -25.8600 ha         1 5IF       0.114500
     46 H20        100.8650    45.1090   -22.5770 ha         1 5IF       0.118000
     47 H21         99.2450    41.2390   -19.7580 hn         1 5IF       0.341500
     48 H22        102.8120    39.2270   -21.1730 hn         1 5IF       0.362500
     49 H23        100.7010    38.5160   -22.7640 ho         1 5IF       0.477000
     50 H24        104.7800    50.8730   -25.4980 ho         1 5IF       0.439000
@<TRIPOS>BOND
     1     1     7 ar  
     2     1    13 1   
     3     1    15 ar  
     4     2    15 ar  
     5     2    16 ar  
     6     2    27 1   
     7     3     6 ar  
     8     3    16 1   
     9     3    17 ar  
    10     4     5 1   
    11     4    18 ar  
    12     4    19 ar  
    13     5    26 1   
    14     5    28 1   
    15     5    29 1   
    16     6    19 ar  
    17     6    30 1   
    18     7    20 ar  
    19     7    31 1   
    20     8     9 1   
    21     8    21 1   
    22     8    23 2   
    23     9    10 1   
    24     9    11 1   
    25     9    12 1   
    26    10    32 1   
    27    10    33 1   
    28    10    34 1   
    29    11    35 1   
    30    11    36 1   
    31    11    37 1   
    32    12    38 1   
    33    12    39 1   
    34    12    40 1   
    35    13    14 1   
    36    13    21 1   
    37    13    41 1   
    38    14    22 1   
    39    14    25 2   
    40    15    42 1   
    41    16    20 ar  
    42    17    18 ar  
    43    17    43 1   
    44    18    44 1   
    45    19    45 1   
    46    20    46 1   
    47    21    47 1   
    48    22    24 1   
    49    22    48 1   
    50    24    49 1   
    51    26    50 1   
@<TRIPOS>SUBSTRUCTURE
     1 5IF         1 TEMP              0 ****  ****    0 ROOT
