@<TRIPOS>MOLECULE
5IG
   55    57     1     0     0
SMALL
No Charge or Current Charge


@<TRIPOS>ATOM
      1 C1          -3.4710    -1.0200     1.5320 ca         1 5IG       0.428900
      2 N1          -4.7410    -0.6170     1.4710 nb         1 5IG      -0.332000
      3 C2          -5.1070    -0.0480     0.3220 ca         1 5IG       0.412900
      4 N2          -4.3580     0.1630    -0.7640 nb         1 5IG      -0.287000
      5 C3          -3.0710    -0.2370    -0.6990 ca         1 5IG       0.209300
      6 C4          -2.5510    -0.8620     0.4710 cp         1 5IG      -0.282000
      7 N3          -3.1200    -1.5740     2.7180 nv         1 5IG      -1.071900
      8 N4          -6.3940     0.3570     0.2480 nv         1 5IG      -1.054900
      9 C6          -2.2600     0.0020    -1.9720 c3         1 5IG      -0.135700
     10 C7          -0.8380    -2.6960     0.7740 ca         1 5IG      -0.098000
     11 C8           0.4920    -3.1400     0.8320 ca         1 5IG      -0.110000
     12 C9           1.5440    -2.2230     0.7050 ca         1 5IG       0.086100
     13 C10          1.2830    -0.8330     0.5910 ca         1 5IG      -0.083000
     14 C11         -0.0620    -0.4130     0.4740 ca         1 5IG      -0.126000
     15 C12         -1.1350    -1.3290     0.5750 cp         1 5IG      -0.008000
     16 O3           2.8380    -2.7020     0.6830 os         1 5IG      -0.336100
     17 C14          3.8230    -1.9230    -0.0330 c6         1 5IG       0.115000
     18 C15          3.7160    -0.4180     0.3590 c          1 5IG       0.545000
     19 N5           2.3950     0.0830     0.4200 n          1 5IG      -0.210400
     20 C16          2.1900     1.5410     0.6180 c3         1 5IG       0.100000
     21 C17          1.9230     2.2800    -0.7090 c3         1 5IG      -0.105400
     22 C18          1.5520     3.7580    -0.5030 c3         1 5IG       0.161600
     23 O1           1.3170     4.3300    -1.7980 os         1 5IG      -0.451000
     24 C19          0.9400     5.7170    -1.7770 c3         1 5IG       0.146900
     25 C21          5.2150    -2.5260     0.3150 c3         1 5IG      -0.096600
     26 C20          3.5470    -2.1040    -1.5580 c3         1 5IG      -0.096600
     27 O4           4.6980     0.2630     0.6460 o          1 5IG      -0.531000
     28 C5          -1.9160     1.4910    -2.1980 c3         1 5IG      -0.083100
     29 HN31        -3.7390    -1.4320     3.5110 hn         1 5IG       0.492500
     30 HN32        -2.1310    -1.6800     2.9190 hn         1 5IG       0.492500
     31 HN41        -6.7750     0.5800    -0.6680 hn         1 5IG       0.488000
     32 HN42        -7.0490     0.0170     0.9470 hn         1 5IG       0.488000
     33 H61         -2.8230    -0.3620    -2.8400 hc         1 5IG       0.058700
     34 H62         -1.3320    -0.5790    -1.9630 hc         1 5IG       0.058700
     35 H8           0.7080    -4.2000     0.9450 ha         1 5IG       0.132000
     36 H11         -0.3050     0.6330     0.3210 ha         1 5IG       0.126000
     37 H161         1.3470     1.6960     1.3030 h1         1 5IG       0.060700
     38 H162         3.0640     1.9880     1.1080 h1         1 5IG       0.060700
     39 H171         2.8180     2.2150    -1.3400 hc         1 5IG       0.064700
     40 H172         1.1130     1.7800    -1.2510 hc         1 5IG       0.064700
     41 H181         0.6500     3.8270     0.1200 h1         1 5IG       0.019700
     42 H182         2.3730     4.2770     0.0100 h1         1 5IG       0.019700
     43 H191         0.7790     6.0840    -2.7980 h1         1 5IG       0.029033
     44 H192         0.0100     5.8590    -1.2110 h1         1 5IG       0.029033
     45 H193         1.7270     6.3270    -1.3140 h1         1 5IG       0.029033
     46 H211         5.2600    -3.5930     0.0690 hc         1 5IG       0.056200
     47 H212         6.0180    -2.0240    -0.2380 hc         1 5IG       0.056200
     48 H213         5.4340    -2.4220     1.3850 hc         1 5IG       0.056200
     49 H201         2.5720    -1.6970    -1.8490 hc         1 5IG       0.056200
     50 H202         4.3060    -1.5880    -2.1580 hc         1 5IG       0.056200
     51 H203         3.5630    -3.1630    -1.8420 hc         1 5IG       0.056200
     52 H51         -1.3830     1.9070    -1.3370 hc         1 5IG       0.038033
     53 H52         -1.2820     1.6070    -3.0850 hc         1 5IG       0.038033
     54 H53         -2.8280     2.0810    -2.3510 hc         1 5IG       0.038033
     55 H7          -1.6490    -3.4170     0.8530 ha         1 5IG       0.126000
@<TRIPOS>BOND
     1     1     2 ar  
     2     1     6 ar  
     3     1     7 1   
     4     2     3 ar  
     5     3     4 ar  
     6     3     8 1   
     7     4     5 ar  
     8     5     6 ar  
     9     5     9 1   
    10     6    15 1   
    11     7    29 1   
    12     7    30 1   
    13     8    31 1   
    14     8    32 1   
    15     9    28 1   
    16     9    33 1   
    17     9    34 1   
    18    10    11 ar  
    19    10    15 ar  
    20    10    55 1   
    21    11    12 ar  
    22    11    35 1   
    23    12    13 ar  
    24    12    16 1   
    25    13    14 ar  
    26    13    19 1   
    27    14    15 ar  
    28    14    36 1   
    29    16    17 1   
    30    17    18 1   
    31    17    25 1   
    32    17    26 1   
    33    18    19 1   
    34    18    27 2   
    35    19    20 1   
    36    20    21 1   
    37    20    37 1   
    38    20    38 1   
    39    21    22 1   
    40    21    39 1   
    41    21    40 1   
    42    22    23 1   
    43    22    41 1   
    44    22    42 1   
    45    23    24 1   
    46    24    43 1   
    47    24    44 1   
    48    24    45 1   
    49    25    46 1   
    50    25    47 1   
    51    25    48 1   
    52    26    49 1   
    53    26    50 1   
    54    26    51 1   
    55    28    52 1   
    56    28    53 1   
    57    28    54 1   
@<TRIPOS>SUBSTRUCTURE
     1 5IG         1 TEMP              0 ****  ****    0 ROOT
