@<TRIPOS>MOLECULE
5IG
   55    57     1     0     0
SMALL
bcc


@<TRIPOS>ATOM
      1 C1          -3.2300    -0.3800     1.5240 ca         1 5IG       0.757200
      2 N1          -4.4800     0.0680     1.4580 nb         1 5IG      -0.858000
      3 C2          -5.0380     0.1190     0.2510 ca         1 5IG       0.938900
      4 N2          -4.4660    -0.2360    -0.8980 nb         1 5IG      -0.813000
      5 C3          -3.2100    -0.6830    -0.8280 ca         1 5IG       0.537600
      6 C4          -2.5210    -0.7840     0.3690 cp         1 5IG      -0.412600
      7 N3          -2.6710    -0.4620     2.7460 nv         1 5IG      -0.961500
      8 N4          -6.2960     0.6180     0.1820 nv         1 5IG      -0.944500
      9 C6          -2.5640    -1.0200    -2.1410 c3         1 5IG      -0.135700
     10 C7          -0.8360    -2.6250     0.5560 ca         1 5IG      -0.116000
     11 C8           0.4800    -3.0640     0.5920 ca         1 5IG      -0.128000
     12 C9           1.5150    -2.1470     0.5580 ca         1 5IG       0.086100
     13 C10          1.2480    -0.7790     0.4900 ca         1 5IG       0.009600
     14 C11         -0.0740    -0.3530     0.4350 ca         1 5IG      -0.144000
     15 C12         -1.1250    -1.2680     0.4580 cp         1 5IG      -0.008000
     16 O3           2.7970    -2.5680     0.6150 os         1 5IG      -0.312900
     17 C14          3.7200    -1.8030    -0.1640 c6         1 5IG       0.091800
     18 C15          3.5870    -0.3220     0.1890 c          1 5IG       0.687500
     19 N5           2.3350     0.1060     0.5080 n          1 5IG      -0.370000
     20 C16          2.1290     1.5210     0.7870 c3         1 5IG       0.100000
     21 C17          1.8590     2.3450    -0.4670 c3         1 5IG      -0.105400
     22 C18          1.5980     3.7930    -0.1030 c3         1 5IG       0.138400
     23 O1           1.3410     4.5260    -1.2730 os         1 5IG      -0.404600
     24 C19          1.0800     5.8810    -1.0130 c3         1 5IG       0.123700
     25 C21          5.0980    -2.3170     0.2090 c3         1 5IG      -0.096600
     26 C20          3.4470    -1.9820    -1.6570 c3         1 5IG      -0.096600
     27 O4           4.5420     0.4290     0.1450 o          1 5IG      -0.606500
     28 C5          -1.9420     0.2200    -2.7860 c3         1 5IG      -0.083100
     29 HN31        -3.1410    -0.0270     3.5200 hn         1 5IG       0.437300
     30 HN32        -1.6830    -0.6200     2.8440 hn         1 5IG       0.437300
     31 HN41        -6.8200     0.4520    -0.6590 hn         1 5IG       0.432800
     32 HN42        -6.8290     0.6770     1.0330 hn         1 5IG       0.432800
     33 H61         -3.3260    -1.4330    -2.8040 hc         1 5IG       0.058700
     34 H62         -1.7980    -1.7840    -2.0080 hc         1 5IG       0.058700
     35 H8           0.7090    -4.1200     0.6510 ha         1 5IG       0.150000
     36 H11         -0.3100     0.6990     0.3630 ha         1 5IG       0.144000
     37 H161         1.3040     1.6080     1.4960 h1         1 5IG       0.060700
     38 H162         3.0140     1.8950     1.2990 h1         1 5IG       0.060700
     39 H171         2.7180     2.2780    -1.1380 hc         1 5IG       0.064700
     40 H172         0.9970     1.9440    -1.0060 hc         1 5IG       0.064700
     41 H181         0.7440     3.8570     0.5880 h1         1 5IG       0.019700
     42 H182         2.4660     4.2070     0.4330 h1         1 5IG       0.019700
     43 H191         0.8610     6.3720    -1.9600 h1         1 5IG       0.029033
     44 H192         0.2180     6.0130    -0.3480 h1         1 5IG       0.029033
     45 H193         1.9380     6.3860    -0.5530 h1         1 5IG       0.029033
     46 H211         5.1670    -3.3800    -0.0220 hc         1 5IG       0.056200
     47 H212         5.8690    -1.8010    -0.3570 hc         1 5IG       0.056200
     48 H213         5.3010    -2.1800     1.2710 hc         1 5IG       0.056200
     49 H201         2.4450    -1.6570    -1.9400 hc         1 5IG       0.056200
     50 H202         4.1620    -1.4050    -2.2420 hc         1 5IG       0.056200
     51 H203         3.5550    -3.0330    -1.9310 hc         1 5IG       0.056200
     52 H51         -1.1150     0.6040    -2.1880 hc         1 5IG       0.038033
     53 H52         -1.5530    -0.0160    -3.7760 hc         1 5IG       0.038033
     54 H53         -2.6780     1.0170    -2.8940 hc         1 5IG       0.038033
     55 H7          -1.6410    -3.3470     0.5780 ha         1 5IG       0.144000
@<TRIPOS>BOND
     1     1     2 ar  
     2     1     6 ar  
     3     1     7 1   
     4     2     3 ar  
     5     3     4 ar  
     6     3     8 1   
     7     4     5 ar  
     8     5     6 ar  
     9     5     9 1   
    10     6    15 1   
    11     7    29 1   
    12     7    30 1   
    13     8    31 1   
    14     8    32 1   
    15     9    28 1   
    16     9    33 1   
    17     9    34 1   
    18    10    11 ar  
    19    10    15 ar  
    20    10    55 1   
    21    11    12 ar  
    22    11    35 1   
    23    12    13 ar  
    24    12    16 1   
    25    13    14 ar  
    26    13    19 1   
    27    14    15 ar  
    28    14    36 1   
    29    16    17 1   
    30    17    18 1   
    31    17    25 1   
    32    17    26 1   
    33    18    19 1   
    34    18    27 2   
    35    19    20 1   
    36    20    21 1   
    37    20    37 1   
    38    20    38 1   
    39    21    22 1   
    40    21    39 1   
    41    21    40 1   
    42    22    23 1   
    43    22    41 1   
    44    22    42 1   
    45    23    24 1   
    46    24    43 1   
    47    24    44 1   
    48    24    45 1   
    49    25    46 1   
    50    25    47 1   
    51    25    48 1   
    52    26    49 1   
    53    26    50 1   
    54    26    51 1   
    55    28    52 1   
    56    28    53 1   
    57    28    54 1   
@<TRIPOS>SUBSTRUCTURE
     1 5IG         1 TEMP              0 ****  ****    0 ROOT
