@<TRIPOS>MOLECULE
5IH
   42    44     1     0     0
SMALL
bcc


@<TRIPOS>ATOM
      1 CAB         52.1020   151.7120    25.8050 c3         1 5IH      -0.061900
      2 CAW         52.6400   153.0790    26.1050 cc         1 5IH       0.047600
      3 CAV         53.8570   153.4570    25.6300 cd         1 5IH      -0.234400
      4 CAA         54.7420   152.5950    24.7850 c3         1 5IH      -0.036900
      5 CAX         54.3940   154.7680    25.9350 c          1 5IH       0.748800
      6 OAC         55.4700   155.1830    25.5750 o          1 5IH      -0.567500
      7 OAS         53.6370   155.6040    26.6870 os         1 5IH      -0.334200
      8 CAY         52.4180   155.2690    27.1570 ca         1 5IH       0.209100
      9 CAK         51.7650   156.2460    27.8980 ca         1 5IH      -0.257000
     10 CAZ         51.8720   154.0130    26.9000 ca         1 5IH      -0.184800
     11 CAJ         50.5970   153.7670    27.4380 ca         1 5IH      -0.039000
     12 CAI         49.9270   154.7120    28.1760 ca         1 5IH      -0.194000
     13 CAU         50.5080   155.9680    28.4130 ca         1 5IH       0.198100
     14 OAR         49.7860   156.8290    29.1370 os         1 5IH      -0.312900
     15 CAO         50.3100   158.1270    29.3840 c3         1 5IH       0.138400
     16 CBA         49.3020   158.9210    30.1900 c6         1 5IH      -0.066700
     17 CAQ         49.8230   160.3480    30.3600 c6         1 5IH       0.162800
     18 CAM         49.0310   158.3030    31.5620 c6         1 5IH      -0.069400
     19 CAL         48.1360   159.2080    32.4030 c6         1 5IH      -0.076400
     20 CAN         48.7060   160.6160    32.4730 c6         1 5IH       0.157800
     21 NBB         48.8820   161.1380    31.1290 n7         1 5IH      -0.805200
     22 H1          51.1450   151.5110    26.2740 hc         1 5IH       0.052033
     23 H2          51.9730   151.5750    24.7310 hc         1 5IH       0.052033
     24 H3          52.7970   150.9440    26.1460 hc         1 5IH       0.052033
     25 H4          54.2710   151.6510    24.5260 hc         1 5IH       0.049033
     26 H5          55.0050   153.0990    23.8540 hc         1 5IH       0.049033
     27 H6          55.6790   152.3680    25.2970 hc         1 5IH       0.049033
     28 H7          52.2570   157.1970    28.0510 ha         1 5IH       0.160000
     29 H8          50.1150   152.8150    27.2750 ha         1 5IH       0.138000
     30 H9          48.9460   154.4960    28.5780 ha         1 5IH       0.152000
     31 H10         51.2560   158.0540    29.9350 h1         1 5IH       0.041200
     32 H11         50.5160   158.6320    28.4320 h1         1 5IH       0.041200
     33 H12         48.3640   158.9730    29.6250 hc         1 5IH       0.077700
     34 H13         50.8200   160.3030    30.8330 h1         1 5IH       0.029200
     35 H14         49.9560   160.8150    29.3810 h1         1 5IH       0.029200
     36 H15         48.5770   157.3150    31.4590 hc         1 5IH       0.045200
     37 H16         49.9880   158.1570    32.0770 hc         1 5IH       0.045200
     38 H17         47.1350   159.2480    31.9650 hc         1 5IH       0.048200
     39 H18         48.0280   158.8010    33.4110 hc         1 5IH       0.048200
     40 H19         48.0270   161.2730    33.0190 h1         1 5IH       0.029700
     41 H20         49.6510   160.5900    33.0420 h1         1 5IH       0.029700
     42 H21         49.2110   162.0930    31.1780 hn         1 5IH       0.358800
@<TRIPOS>BOND
     1     1     2 1   
     2     1    22 1   
     3     1    23 1   
     4     1    24 1   
     5     2     3 2   
     6     2    10 1   
     7     3     4 1   
     8     3     5 1   
     9     4    25 1   
    10     4    26 1   
    11     4    27 1   
    12     5     6 2   
    13     5     7 1   
    14     7     8 1   
    15     8     9 ar  
    16     8    10 ar  
    17     9    13 ar  
    18     9    28 1   
    19    10    11 ar  
    20    11    12 ar  
    21    11    29 1   
    22    12    13 ar  
    23    12    30 1   
    24    13    14 1   
    25    14    15 1   
    26    15    16 1   
    27    15    31 1   
    28    15    32 1   
    29    16    17 1   
    30    16    18 1   
    31    16    33 1   
    32    17    21 1   
    33    17    34 1   
    34    17    35 1   
    35    18    19 1   
    36    18    36 1   
    37    18    37 1   
    38    19    20 1   
    39    19    38 1   
    40    19    39 1   
    41    20    21 1   
    42    20    40 1   
    43    20    41 1   
    44    21    42 1   
@<TRIPOS>SUBSTRUCTURE
     1 5IH         1 TEMP              0 ****  ****    0 ROOT
