@<TRIPOS>MOLECULE
5IH
   42    44     1     0     0
SMALL
No Charge or Current Charge


@<TRIPOS>ATOM
      1 CAB         52.1050   151.5930    25.9120 c3         1 5IH      -0.061900
      2 CAW         52.6780   152.9850    26.0940 cc         1 5IH       0.047600
      3 CAV         53.9000   153.3840    25.5560 cd         1 5IH      -0.234400
      4 CAA         54.7560   152.4670    24.6880 c3         1 5IH      -0.036900
      5 CAX         54.4770   154.7440    25.8130 c          1 5IH       0.673300
      6 OAC         55.5650   155.1050    25.3820 o          1 5IH      -0.492000
      7 OAS         53.7420   155.5890    26.5860 os         1 5IH      -0.334200
      8 CAY         52.5180   155.2790    27.0890 ca         1 5IH       0.209100
      9 CAK         51.8420   156.2620    27.8240 ca         1 5IH      -0.239000
     10 CAZ         51.9540   154.0120    26.8630 ca         1 5IH      -0.184800
     11 CAJ         50.6650   153.7570    27.3880 ca         1 5IH      -0.021000
     12 CAI         49.9840   154.7400    28.1240 ca         1 5IH      -0.176000
     13 CAU         50.5660   155.9930    28.3500 ca         1 5IH       0.198100
     14 OAR         49.8500   156.9180    29.0800 os         1 5IH      -0.336100
     15 CAO         50.3630   158.2300    29.3700 c3         1 5IH       0.161600
     16 CBA         49.3210   159.0120    30.2160 c6         1 5IH      -0.066700
     17 CAQ         49.7770   160.4800    30.4300 c6         1 5IH       0.162800
     18 CAM         49.0380   158.3310    31.5860 c6         1 5IH      -0.069400
     19 CAL         48.0440   159.1770    32.4200 c6         1 5IH      -0.076400
     20 CAN         48.5370   160.6370    32.5610 c6         1 5IH       0.157800
     21 NBB         48.7930   161.2460    31.2340 n7         1 5IH      -0.860400
     22 H1          51.7590   151.1850    26.8690 hc         1 5IH       0.052033
     23 H2          51.2540   151.6120    25.2210 hc         1 5IH       0.052033
     24 H3          52.8340   150.8760    25.5230 hc         1 5IH       0.052033
     25 H4          54.1460   151.9540    23.9350 hc         1 5IH       0.049033
     26 H5          55.5390   152.9930    24.1310 hc         1 5IH       0.049033
     27 H6          55.2480   151.7000    25.2980 hc         1 5IH       0.049033
     28 H7          52.3240   157.2230    27.9710 ha         1 5IH       0.142000
     29 H8          50.1710   152.8010    27.2320 ha         1 5IH       0.120000
     30 H9          48.9950   154.5290    28.5230 ha         1 5IH       0.134000
     31 H10         51.3040   158.1640    29.9320 h1         1 5IH       0.041200
     32 H11         50.5500   158.7800    28.4390 h1         1 5IH       0.041200
     33 H12         48.3930   159.0250    29.6270 hc         1 5IH       0.077700
     34 H13         50.7520   160.4930    30.9410 h1         1 5IH       0.029200
     35 H14         49.9070   160.9730    29.4550 h1         1 5IH       0.029200
     36 H15         48.6280   157.3230    31.4380 hc         1 5IH       0.045200
     37 H16         49.9770   158.2100    32.1450 hc         1 5IH       0.045200
     38 H17         47.0560   159.1680    31.9410 hc         1 5IH       0.048200
     39 H18         47.9130   158.7310    33.4150 hc         1 5IH       0.048200
     40 H19         47.7840   161.2320    33.0990 h1         1 5IH       0.029700
     41 H20         49.4630   160.6560    33.1560 h1         1 5IH       0.029700
     42 H21         49.1490   162.2020    31.3710 hn         1 5IH       0.414000
@<TRIPOS>BOND
     1     1     2 1   
     2     1    22 1   
     3     1    23 1   
     4     1    24 1   
     5     2     3 2   
     6     2    10 1   
     7     3     4 1   
     8     3     5 1   
     9     4    25 1   
    10     4    26 1   
    11     4    27 1   
    12     5     6 2   
    13     5     7 1   
    14     7     8 1   
    15     8     9 ar  
    16     8    10 ar  
    17     9    13 ar  
    18     9    28 1   
    19    10    11 ar  
    20    11    12 ar  
    21    11    29 1   
    22    12    13 ar  
    23    12    30 1   
    24    13    14 1   
    25    14    15 1   
    26    15    16 1   
    27    15    31 1   
    28    15    32 1   
    29    16    17 1   
    30    16    18 1   
    31    16    33 1   
    32    17    21 1   
    33    17    34 1   
    34    17    35 1   
    35    18    19 1   
    36    18    36 1   
    37    18    37 1   
    38    19    20 1   
    39    19    38 1   
    40    19    39 1   
    41    20    21 1   
    42    20    40 1   
    43    20    41 1   
    44    21    42 1   
@<TRIPOS>SUBSTRUCTURE
     1 5IH         1 TEMP              0 ****  ****    0 ROOT
