@<TRIPOS>MOLECULE
5II
   29    29     1     0     0
SMALL
No Charge or Current Charge


@<TRIPOS>ATOM
      1 C9         -80.4370    20.7360   -46.8790 c3         1 5II       0.149900
      2 O1         -80.4780    19.3020   -46.9760 os         1 5II      -0.483000
      3 C1         -80.7020    18.5870   -45.7480 c6         1 5II       0.386300
      4 C2         -80.5330    17.0570   -45.9640 c6         1 5II      -0.120700
      5 C7         -80.4490    16.3040   -44.5980 c3         1 5II      -0.082100
      6 C3         -81.6630    16.5410   -46.9040 c6         1 5II       0.177300
      7 O3         -81.5740    15.1180   -47.0990 oh         1 5II      -0.650000
      8 C4         -83.0710    16.9250   -46.3550 c6         1 5II       0.150300
      9 O4         -84.0910    16.4820   -47.2710 oh         1 5II      -0.706000
     10 C5         -83.1220    18.4650   -46.1220 c6         1 5II       0.137300
     11 O5         -82.0290    18.8780   -45.2530 os         1 5II      -0.464000
     12 C6         -84.4700    18.9220   -45.4720 c3         1 5II       0.168600
     13 O6         -84.5260    20.3380   -45.2060 oh         1 5II      -0.708000
     14 H1         -80.2360    21.1800   -47.8620 h1         1 5II       0.036367
     15 H2         -81.3940    21.1340   -46.5160 h1         1 5II       0.036367
     16 H3         -79.6450    21.0580   -46.1910 h1         1 5II       0.036367
     17 H4         -79.9610    18.9200   -45.0050 h2         1 5II       0.068700
     18 H5         -79.5660    16.8930   -46.4590 hc         1 5II       0.064700
     19 H6         -79.6180    16.6860   -43.9930 hc         1 5II       0.041033
     20 H7         -81.3640    16.4230   -44.0070 hc         1 5II       0.041033
     21 H8         -80.2780    15.2300   -44.7370 hc         1 5II       0.041033
     22 H9         -81.5410    17.0460   -47.8750 h1         1 5II       0.060700
     23 H10        -80.6690    14.9340   -47.4340 ho         1 5II       0.444000
     24 H11        -83.2140    16.4280   -45.3840 h1         1 5II       0.048700
     25 H12        -83.7900    15.5890   -47.5670 ho         1 5II       0.504000
     26 H13        -83.0250    18.9790   -47.0900 h1         1 5II       0.072700
     27 H14        -85.2910    18.6400   -46.1440 h1         1 5II       0.023700
     28 H15        -84.6070    18.3600   -44.5380 h1         1 5II       0.023700
     29 H16        -85.3760    20.5070   -44.7360 ho         1 5II       0.502000
@<TRIPOS>BOND
     1     1     2 1   
     2     1    14 1   
     3     1    15 1   
     4     1    16 1   
     5     2     3 1   
     6     3     4 1   
     7     3    11 1   
     8     3    17 1   
     9     4     5 1   
    10     4     6 1   
    11     4    18 1   
    12     5    19 1   
    13     5    20 1   
    14     5    21 1   
    15     6     7 1   
    16     6     8 1   
    17     6    22 1   
    18     7    23 1   
    19     8     9 1   
    20     8    10 1   
    21     8    24 1   
    22     9    25 1   
    23    10    11 1   
    24    10    12 1   
    25    10    26 1   
    26    12    13 1   
    27    12    27 1   
    28    12    28 1   
    29    13    29 1   
@<TRIPOS>SUBSTRUCTURE
     1 5II         1 TEMP              0 ****  ****    0 ROOT
