@<TRIPOS>MOLECULE
5II
   29    29     1     0     0
SMALL
bcc


@<TRIPOS>ATOM
      1 C9         -80.5250    20.7120   -46.7700 c3         1 5II       0.126700
      2 O1         -80.4680    19.3090   -46.9100 os         1 5II      -0.436600
      3 C1         -80.7370    18.6000   -45.7410 c6         1 5II       0.339900
      4 C2         -80.4930    17.1160   -45.9990 c6         1 5II      -0.120700
      5 C7         -80.4060    16.3600   -44.6760 c3         1 5II      -0.082100
      6 C3         -81.5710    16.5710   -46.9480 c6         1 5II       0.154100
      7 O3         -81.4850    15.1750   -47.1110 oh         1 5II      -0.587800
      8 C4         -82.9660    16.8950   -46.4350 c6         1 5II       0.127100
      9 O4         -83.8970    16.5240   -47.4280 oh         1 5II      -0.583800
     10 C5         -83.0730    18.3980   -46.1370 c6         1 5II       0.114100
     11 O5         -82.0370    18.8210   -45.2680 os         1 5II      -0.417600
     12 C6         -84.3830    18.7490   -45.4650 c3         1 5II       0.145400
     13 O6         -84.4810    20.1500   -45.3590 oh         1 5II      -0.585800
     14 H1         -80.1290    21.1460   -47.6860 h1         1 5II       0.036367
     15 H2         -81.5450    21.0800   -46.6260 h1         1 5II       0.036367
     16 H3         -79.9140    21.0590   -45.9290 h1         1 5II       0.036367
     17 H4         -80.0850    18.9540   -44.9290 h2         1 5II       0.068700
     18 H5         -79.5220    17.0270   -46.4990 hc         1 5II       0.064700
     19 H6         -79.5890    16.7580   -44.0720 hc         1 5II       0.041033
     20 H7         -81.3180    16.4390   -44.0840 hc         1 5II       0.041033
     21 H8         -80.2040    15.3020   -44.8370 hc         1 5II       0.041033
     22 H9         -81.4540    17.0730   -47.9200 h1         1 5II       0.060700
     23 H10        -80.6210    14.9690   -47.4840 ho         1 5II       0.405000
     24 H11        -83.1440    16.3370   -45.5050 h1         1 5II       0.048700
     25 H12        -84.7140    16.2450   -47.0060 ho         1 5II       0.405000
     26 H13        -83.0200    18.9380   -47.0940 h1         1 5II       0.072700
     27 H14        -85.2050    18.3370   -46.0620 h1         1 5II       0.023700
     28 H15        -84.4220    18.2590   -44.4820 h1         1 5II       0.023700
     29 H16        -85.3140    20.3590   -44.9260 ho         1 5II       0.403000
@<TRIPOS>BOND
     1     1     2 1   
     2     1    14 1   
     3     1    15 1   
     4     1    16 1   
     5     2     3 1   
     6     3     4 1   
     7     3    11 1   
     8     3    17 1   
     9     4     5 1   
    10     4     6 1   
    11     4    18 1   
    12     5    19 1   
    13     5    20 1   
    14     5    21 1   
    15     6     7 1   
    16     6     8 1   
    17     6    22 1   
    18     7    23 1   
    19     8     9 1   
    20     8    10 1   
    21     8    24 1   
    22     9    25 1   
    23    10    11 1   
    24    10    12 1   
    25    10    26 1   
    26    12    13 1   
    27    12    27 1   
    28    12    28 1   
    29    13    29 1   
@<TRIPOS>SUBSTRUCTURE
     1 5II         1 TEMP              0 ****  ****    0 ROOT
