@<TRIPOS>MOLECULE
5IJ
   81    84     1     0     0
SMALL
bcc


@<TRIPOS>ATOM
      1 C4          26.2590   -25.2850   -46.2110 ca         1 5IJ      -0.121000
      2 C14         31.0220   -19.6900   -46.8430 c6         1 5IJ       0.349200
      3 C5          25.6830   -25.6810   -45.0140 ca         1 5IJ       0.058600
      4 C6          25.7970   -27.0090   -44.6070 ca         1 5IJ      -0.006600
      5 C11         30.1160   -22.7710   -48.0900 ce         1 5IJ      -0.119000
      6 C7          27.6350   -25.7160   -48.2640 c3         1 5IJ       0.001100
      7 C8          28.8950   -24.9440   -47.9680 c2         1 5IJ      -0.089400
      8 C9          29.9730   -25.7260   -47.2850 c3         1 5IJ      -0.060900
      9 C10         28.9810   -23.6480   -48.3090 ce         1 5IJ      -0.140000
     10 C12         30.1130   -21.4670   -48.3850 c2         1 5IJ      -0.192200
     11 C13         31.2710   -20.5620   -48.0910 c3         1 5IJ       0.186300
     12 C3          26.9620   -26.1890   -47.0000 ca         1 5IJ      -0.061300
     13 C1          26.4910   -27.9290   -45.3880 ca         1 5IJ       0.115100
     14 C17         32.8970   -18.6480   -45.5310 c          1 5IJ       0.857600
     15 C19         31.1450   -19.7860   -44.3440 c6         1 5IJ       0.170100
     16 C2          27.0620   -27.5080   -46.5820 ca         1 5IJ      -0.140000
     17 C20         30.8960   -20.5750   -45.6100 c6         1 5IJ      -0.163400
     18 C22         31.0940   -20.6430   -43.0780 c3         1 5IJ      -0.047700
     19 C23         29.6820   -21.1400   -42.8750 cx         1 5IJ       0.068100
     20 C24         31.5140   -19.8590   -41.8350 c3         1 5IJ      -0.083100
     21 C25         29.1420   -22.4340   -43.3160 cx         1 5IJ       0.057800
     22 C26         27.6360   -22.4910   -43.5190 c3         1 5IJ       0.169100
     23 C27         27.0410   -23.8660   -43.2630 c3         1 5IJ      -0.158400
     24 C28         25.5370   -23.8250   -43.4370 c          1 5IJ       0.681100
     25 C36         25.6580   -30.1080   -45.4890 c3         1 5IJ       0.125700
     26 C37         32.1270   -20.3220   -50.2720 c3         1 5IJ       0.119700
     27 C38         29.9530   -23.4610   -44.0620 c3         1 5IJ      -0.080100
     28 C40         26.6220   -20.8400   -46.6670 c3         1 5IJ      -0.158100
     29 N16         32.1600   -18.8180   -46.6520 ns         1 5IJ      -0.643900
     30 N31         24.9550   -24.7610   -44.2240 n          1 5IJ      -0.401000
     31 O15         31.5400   -19.6880   -49.1590 os         1 5IJ      -0.395600
     32 O18         32.4510   -19.2060   -44.4040 os         1 5IJ      -0.415900
     33 O21         33.9320   -18.0190   -45.5020 o          1 5IJ      -0.616500
     34 O29         29.5000   -22.2130   -41.9620 op         1 5IJ      -0.373600
     35 O30         27.3410   -22.1650   -44.8830 os         1 5IJ      -0.441900
     36 O32         24.8670   -22.9840   -42.8590 o          1 5IJ      -0.587100
     37 O34         26.6300   -29.2070   -44.9670 os         1 5IJ      -0.324900
     38 O41         26.8200   -20.0340   -44.4120 o          1 5IJ      -0.525000
     39 O42         29.8600   -18.9520   -47.0980 oh         1 5IJ      -0.583800
     40 CL33        25.1070   -27.5140   -43.1130 cl         1 5IJ      -0.070400
     41 H1          26.1640   -24.2510   -46.5200 ha         1 5IJ       0.153000
     42 H2          31.0120   -23.1920   -47.6420 ha         1 5IJ       0.119000
     43 H3          26.9440   -25.0940   -48.8360 hc         1 5IJ       0.058700
     44 H4          27.8810   -26.5820   -48.8850 hc         1 5IJ       0.058700
     45 H5          30.1840   -26.6450   -47.8350 hc         1 5IJ       0.046033
     46 H6          30.9060   -25.1790   -47.1760 hc         1 5IJ       0.046033
     47 H7          29.6540   -26.0310   -46.2850 hc         1 5IJ       0.046033
     48 H8          28.1220   -23.1910   -48.7930 ha         1 5IJ       0.121000
     49 H9          29.2360   -21.0120   -48.8380 ha         1 5IJ       0.144000
     50 H10         32.1580   -21.1770   -47.8700 h1         1 5IJ       0.045700
     51 H11         30.4130   -18.9720   -44.2420 h1         1 5IJ       0.056700
     52 H12         27.6080   -28.2280   -47.1820 ha         1 5IJ       0.147000
     53 H13         29.9040   -21.0200   -45.6020 hc         1 5IJ       0.079200
     54 H14         31.6140   -21.3990   -45.6560 hc         1 5IJ       0.079200
     55 H15         31.7760   -21.4890   -43.2080 hc         1 5IJ       0.070700
     56 H16         28.9620   -20.3300   -42.7480 h1         1 5IJ       0.101700
     57 H17         31.4280   -20.4840   -40.9460 hc         1 5IJ       0.049033
     58 H18         32.5470   -19.5220   -41.8980 hc         1 5IJ       0.049033
     59 H19         30.8790   -18.9830   -41.6910 hc         1 5IJ       0.049033
     60 H20         27.1630   -21.7690   -42.8500 h1         1 5IJ       0.102700
     61 H21         27.5190   -24.6210   -43.8830 hc         1 5IJ       0.083700
     62 H22         27.2390   -24.1400   -42.2230 hc         1 5IJ       0.083700
     63 H23         23.0380   -24.8240   -43.3450 h1         1 5IJ       0.046700
     64 H24         23.1340   -23.8930   -44.8490 h1         1 5IJ       0.046700
     65 H25         23.1980   -25.6560   -44.8930 h1         1 5IJ       0.046700
     66 H26         25.8750   -31.0880   -45.0710 h1         1 5IJ       0.041033
     67 H27         24.6450   -29.8160   -45.2020 h1         1 5IJ       0.041033
     68 H28         25.7130   -30.1670   -46.5790 h1         1 5IJ       0.041033
     69 H29         32.3610   -19.5500   -51.0040 h1         1 5IJ       0.035033
     70 H30         33.0530   -20.8400   -50.0020 h1         1 5IJ       0.035033
     71 H31         31.4550   -21.0500   -50.7380 h1         1 5IJ       0.035033
     72 H32         31.0220   -23.2800   -43.9820 hc         1 5IJ       0.052367
     73 H33         29.7630   -24.4600   -43.6670 hc         1 5IJ       0.052367
     74 H34         29.6920   -23.4680   -45.1210 hc         1 5IJ       0.052367
     75 H35         26.3370   -19.8260   -46.9320 hc         1 5IJ       0.071700
     76 H36         27.4890   -21.1360   -47.2550 hc         1 5IJ       0.071700
     77 H37         25.8090   -21.5200   -46.9250 hc         1 5IJ       0.071700
     78 H38         32.5280   -18.3650   -47.4770 hn         1 5IJ       0.347500
     79 H39         29.6770   -18.3600   -46.3590 ho         1 5IJ       0.418000
     80 C35         23.5010   -24.7780   -44.3290 c3         1 5IJ       0.098300
     81 C39         26.9280   -20.9330   -45.2040 c          1 5IJ       0.649100
@<TRIPOS>BOND
     1     1     3 ar  
     2     1    12 ar  
     3     1    41 1   
     4     2    11 1   
     5     2    17 1   
     6     2    29 1   
     7     2    39 1   
     8     3     4 ar  
     9     3    30 1   
    10     4    13 ar  
    11     4    40 1   
    12     5     9 1   
    13     5    10 2   
    14     5    42 1   
    15     6     7 1   
    16     6    12 1   
    17     6    43 1   
    18     6    44 1   
    19     7     8 1   
    20     7     9 2   
    21     8    45 1   
    22     8    46 1   
    23     8    47 1   
    24     9    48 1   
    25    10    11 1   
    26    10    49 1   
    27    11    31 1   
    28    11    50 1   
    29    12    16 ar  
    30    13    16 ar  
    31    13    37 1   
    32    14    29 1   
    33    14    32 1   
    34    14    33 2   
    35    15    17 1   
    36    15    18 1   
    37    15    32 1   
    38    15    51 1   
    39    16    52 1   
    40    17    53 1   
    41    17    54 1   
    42    18    19 1   
    43    18    20 1   
    44    18    55 1   
    45    19    21 1   
    46    19    34 1   
    47    19    56 1   
    48    20    57 1   
    49    20    58 1   
    50    20    59 1   
    51    21    22 1   
    52    21    27 1   
    53    21    34 1   
    54    22    23 1   
    55    22    35 1   
    56    22    60 1   
    57    23    24 1   
    58    23    61 1   
    59    23    62 1   
    60    24    30 1   
    61    24    36 2   
    62    25    37 1   
    63    25    66 1   
    64    25    67 1   
    65    25    68 1   
    66    26    31 1   
    67    26    69 1   
    68    26    70 1   
    69    26    71 1   
    70    27    72 1   
    71    27    73 1   
    72    27    74 1   
    73    28    75 1   
    74    28    76 1   
    75    28    77 1   
    76    28    81 1   
    77    29    78 1   
    78    30    80 1   
    79    35    81 1   
    80    38    81 2   
    81    39    79 1   
    82    63    80 1   
    83    64    80 1   
    84    65    80 1   
@<TRIPOS>SUBSTRUCTURE
     1 5IJ         1 TEMP              0 ****  ****    0 ROOT
