@<TRIPOS>MOLECULE
5IJ
   81    84     1     0     0
SMALL
No Charge or Current Charge


@<TRIPOS>ATOM
      1 C4          26.0290   -25.1750   -46.2080 ca         1 5IJ      -0.103000
      2 C14         31.1980   -19.7220   -46.7850 c6         1 5IJ       0.372400
      3 C5          25.3270   -25.5730   -45.0560 ca         1 5IJ      -0.034000
      4 C6          25.3920   -26.9190   -44.6320 ca         1 5IJ       0.085000
      5 C11         30.0850   -22.7950   -48.0470 ce         1 5IJ      -0.169000
      6 C7          27.4510   -25.6810   -48.2510 c3         1 5IJ       0.001100
      7 C8          28.7390   -24.9250   -47.9600 c2         1 5IJ      -0.089400
      8 C9          29.7580   -25.7800   -47.2180 c3         1 5IJ      -0.060900
      9 C10         28.9050   -23.6280   -48.3170 ce         1 5IJ      -0.190000
     10 C12         30.1540   -21.4910   -48.3950 c2         1 5IJ      -0.242200
     11 C13         31.3230   -20.5590   -48.1210 c3         1 5IJ       0.209500
     12 C3          26.7230   -26.1200   -46.9850 ca         1 5IJ      -0.061300
     13 C1          26.0930   -27.8740   -45.3990 ca         1 5IJ       0.115100
     14 C17         33.1400   -18.8100   -45.4520 c          1 5IJ       0.715100
     15 C19         31.2460   -19.8600   -44.2770 c6         1 5IJ       0.193300
     16 C2          26.7490   -27.4680   -46.5820 ca         1 5IJ      -0.122000
     17 C20         30.9320   -20.6220   -45.5680 c6         1 5IJ      -0.163400
     18 C22         31.0850   -20.7010   -42.9640 c3         1 5IJ      -0.047700
     19 C23         29.6490   -21.1910   -42.7220 cx         1 5IJ       0.091300
     20 C24         31.5530   -19.9150   -41.7110 c3         1 5IJ      -0.083100
     21 C25         29.0460   -22.4820   -43.2430 cx         1 5IJ       0.081000
     22 C26         27.5130   -22.5440   -43.4250 c3         1 5IJ       0.192300
     23 C27         26.8890   -23.9210   -43.1180 c3         1 5IJ      -0.158400
     24 C28         25.3600   -23.8470   -43.2230 c          1 5IJ       0.614100
     25 C36         26.8220   -30.2260   -45.6660 c3         1 5IJ       0.148900
     26 C37         31.8280   -20.1960   -50.4810 c3         1 5IJ       0.142900
     27 C38         29.8340   -23.4750   -44.1080 c3         1 5IJ      -0.080100
     28 C40         26.7480   -20.7930   -46.6500 c3         1 5IJ      -0.158100
     29 N16         32.3800   -18.9140   -46.5870 ns         1 5IJ      -0.576900
     30 N31         24.6930   -24.5780   -44.2390 n          1 5IJ      -0.241400
     31 O15         31.4080   -19.6280   -49.2260 os         1 5IJ      -0.442000
     32 O18         32.6110   -19.4100   -44.3400 os         1 5IJ      -0.439100
     33 O21         34.2110   -18.2320   -45.4470 o          1 5IJ      -0.541000
     34 O29         29.5150   -22.3590   -41.8790 op         1 5IJ      -0.420000
     35 O30         27.1790   -22.2340   -44.7940 os         1 5IJ      -0.465100
     36 O32         24.7320   -23.1670   -42.4180 o          1 5IJ      -0.587100
     37 O34         26.1230   -29.1870   -44.9570 os         1 5IJ      -0.348100
     38 O41         27.2870   -19.9650   -44.4410 o          1 5IJ      -0.476000
     39 O42         30.1360   -18.7980   -46.9310 oh         1 5IJ      -0.706000
     40 Cl33        24.6040   -27.4110   -43.1250 cl         1 5IJ      -0.162000
     41 H1          26.0250   -24.1290   -46.5070 ha         1 5IJ       0.135000
     42 H2          30.9270   -23.2540   -47.5280 ha         1 5IJ       0.169000
     43 H3          26.7740   -25.0620   -48.8520 hc         1 5IJ       0.058700
     44 H4          27.6710   -26.5500   -48.8830 hc         1 5IJ       0.058700
     45 H5          29.7500   -26.8150   -47.5810 hc         1 5IJ       0.046033
     46 H6          30.7840   -25.4190   -47.3400 hc         1 5IJ       0.046033
     47 H7          29.5380   -25.8080   -46.1440 hc         1 5IJ       0.046033
     48 H8          28.0940   -23.1250   -48.8450 ha         1 5IJ       0.171000
     49 H9          29.3190   -21.0100   -48.9050 ha         1 5IJ       0.194000
     50 H10         32.2460   -21.1500   -48.0530 h1         1 5IJ       0.045700
     51 H11         30.5930   -18.9770   -44.2120 h1         1 5IJ       0.056700
     52 H12         27.2950   -28.1840   -47.1900 ha         1 5IJ       0.129000
     53 H13         29.8900   -20.9590   -45.5810 hc         1 5IJ       0.079200
     54 H14         31.5640   -21.5180   -45.6220 hc         1 5IJ       0.079200
     55 H15         31.7490   -21.5690   -43.0360 hc         1 5IJ       0.070700
     56 H16         28.9590   -20.3810   -42.4840 h1         1 5IJ       0.101700
     57 H17         31.4230   -20.5190   -40.8040 hc         1 5IJ       0.049033
     58 H18         32.6140   -19.6510   -41.7790 hc         1 5IJ       0.049033
     59 H19         30.9750   -18.9900   -41.5910 hc         1 5IJ       0.049033
     60 H20         27.0500   -21.8200   -42.7380 h1         1 5IJ       0.102700
     61 H21         27.3020   -24.6760   -43.7890 hc         1 5IJ       0.083700
     62 H22         27.1450   -24.1850   -42.0860 hc         1 5IJ       0.083700
     63 H23         22.7810   -24.8700   -43.3730 h1         1 5IJ       0.046700
     64 H24         22.9140   -23.4510   -44.4570 h1         1 5IJ       0.046700
     65 H25         22.8450   -25.0970   -45.1440 h1         1 5IJ       0.046700
     66 H26         26.7150   -31.1830   -45.1400 h1         1 5IJ       0.041033
     67 H27         26.4170   -30.3490   -46.6790 h1         1 5IJ       0.041033
     68 H28         27.8930   -29.9960   -45.7390 h1         1 5IJ       0.041033
     69 H29         31.8980   -19.4130   -51.2470 h1         1 5IJ       0.035033
     70 H30         32.8140   -20.6670   -50.3850 h1         1 5IJ       0.035033
     71 H31         31.1140   -20.9510   -50.8350 h1         1 5IJ       0.035033
     72 H32         30.9150   -23.3950   -43.9600 hc         1 5IJ       0.052367
     73 H33         29.5660   -24.5090   -43.8690 hc         1 5IJ       0.052367
     74 H34         29.6300   -23.3200   -45.1740 hc         1 5IJ       0.052367
     75 H35         26.7030   -19.7520   -46.9840 hc         1 5IJ       0.071700
     76 H36         27.4600   -21.3820   -47.2340 hc         1 5IJ       0.071700
     77 H37         25.8060   -21.3220   -46.8310 hc         1 5IJ       0.071700
     78 H38         32.7750   -18.4700   -47.4040 hn         1 5IJ       0.347500
     79 H39         30.1930   -18.5360   -47.8770 ho         1 5IJ       0.517000
     80 C35         23.2190   -24.4940   -44.3060 c3         1 5IJ       0.098300
     81 C39         27.1040   -20.9210   -45.1790 c          1 5IJ       0.600100
@<TRIPOS>BOND
     1     1     3 ar  
     2     1    12 ar  
     3     1    41 1   
     4     2    11 1   
     5     2    17 1   
     6     2    29 1   
     7     2    39 1   
     8     3     4 ar  
     9     3    30 1   
    10     4    13 ar  
    11     4    40 1   
    12     5     9 1   
    13     5    10 2   
    14     5    42 1   
    15     6     7 1   
    16     6    12 1   
    17     6    43 1   
    18     6    44 1   
    19     7     8 1   
    20     7     9 2   
    21     8    45 1   
    22     8    46 1   
    23     8    47 1   
    24     9    48 1   
    25    10    11 1   
    26    10    49 1   
    27    11    31 1   
    28    11    50 1   
    29    12    16 ar  
    30    13    16 ar  
    31    13    37 1   
    32    14    29 1   
    33    14    32 1   
    34    14    33 2   
    35    15    17 1   
    36    15    18 1   
    37    15    32 1   
    38    15    51 1   
    39    16    52 1   
    40    17    53 1   
    41    17    54 1   
    42    18    19 1   
    43    18    20 1   
    44    18    55 1   
    45    19    21 1   
    46    19    34 1   
    47    19    56 1   
    48    20    57 1   
    49    20    58 1   
    50    20    59 1   
    51    21    22 1   
    52    21    27 1   
    53    21    34 1   
    54    22    23 1   
    55    22    35 1   
    56    22    60 1   
    57    23    24 1   
    58    23    61 1   
    59    23    62 1   
    60    24    30 1   
    61    24    36 2   
    62    25    37 1   
    63    25    66 1   
    64    25    67 1   
    65    25    68 1   
    66    26    31 1   
    67    26    69 1   
    68    26    70 1   
    69    26    71 1   
    70    27    72 1   
    71    27    73 1   
    72    27    74 1   
    73    28    75 1   
    74    28    76 1   
    75    28    77 1   
    76    28    81 1   
    77    29    78 1   
    78    30    80 1   
    79    35    81 1   
    80    38    81 2   
    81    39    79 1   
    82    63    80 1   
    83    64    80 1   
    84    65    80 1   
@<TRIPOS>SUBSTRUCTURE
     1 5IJ         1 TEMP              0 ****  ****    0 ROOT
