@<TRIPOS>MOLECULE
5IL
   49    52     1     0     0
SMALL
No Charge or Current Charge


@<TRIPOS>ATOM
      1 C1         112.1120   -17.9890    67.4140 ca         1 5IL      -0.114000
      2 C2         113.0000   -17.7530    68.4630 ca         1 5IL      -0.035000
      3 C3         114.1790   -16.9910    68.2710 ca         1 5IL      -0.214500
      4 C4         114.4740   -16.4570    66.9610 ca         1 5IL      -0.025600
      5 C5         113.5410   -16.7120    65.9080 ca         1 5IL      -0.144600
      6 C6         112.3760   -17.4700    66.1480 ca         1 5IL      -0.025000
      7 C7         115.7440   -15.6460    66.6380 c          1 5IL       0.578900
      8 C8         115.8400   -15.0670    65.2350 cc         1 5IL       0.181800
      9 C10        113.7490   -16.1870    64.5110 c          1 5IL       0.595900
     10 C16        117.5630   -13.2240    65.6300 ca         1 5IL       0.263000
     11 C17        118.9400   -13.0570    65.3910 ca         1 5IL      -0.099000
     12 C18        119.6820   -12.0950    66.0940 ca         1 5IL      -0.107000
     13 C19        119.0510   -11.2810    67.0440 ca         1 5IL      -0.095000
     14 C20        117.6750   -11.4220    67.2860 ca         1 5IL      -0.122000
     15 C21        116.9050   -12.3810    66.5920 ca         1 5IL       0.240000
     16 C23        114.5340   -11.9840    65.7980 c6         1 5IL       0.138300
     17 C24        113.1010   -12.5790    65.9950 c6         1 5IL       0.143800
     18 C26        113.5270   -12.9290    68.3820 c6         1 5IL       0.143800
     19 C27        114.9660   -12.3320    68.2410 c6         1 5IL       0.138300
     20 C9         114.9200   -15.3560    64.2660 cd         1 5IL      -0.425200
     21 N15        116.8980   -14.2320    64.8960 nu         1 5IL      -0.817000
     22 N22        115.4980   -12.4430    66.8460 nh         1 5IL      -0.777400
     23 N25        112.5770   -12.3750    67.3750 n7         1 5IL      -0.840400
     24 N29        114.4700   -17.3860    71.0050 n8         1 5IL      -1.091100
     25 O12        116.4540   -17.5500    69.6280 o          1 5IL      -0.538500
     26 O13        115.3090   -15.3160    70.0770 o          1 5IL      -0.538500
     27 O14        112.9670   -16.4250    63.6010 o          1 5IL      -0.544100
     28 O28        116.6590   -15.5060    67.4440 o          1 5IL      -0.469100
     29 S11        115.2470   -16.7330    69.7300 sy         1 5IL       1.195600
     30 H1         111.2110   -18.5740    67.5840 ha         1 5IL       0.124000
     31 H2         112.7480   -18.1770    69.4320 ha         1 5IL       0.132000
     32 H3         111.6640   -17.6660    65.3480 ha         1 5IL       0.145000
     33 H4         119.4430   -13.6890    64.6640 ha         1 5IL       0.122000
     34 H5         120.7480   -11.9830    65.9030 ha         1 5IL       0.119000
     35 H6         119.6250   -10.5330    67.5870 ha         1 5IL       0.116000
     36 H7         117.2010   -10.7650    68.0090 ha         1 5IL       0.119000
     37 H9         114.4670   -10.8860    65.8180 h1         1 5IL       0.046950
     38 H10        112.4160   -12.1240    65.2640 h1         1 5IL       0.061200
     39 H11        113.1330   -13.6570    65.7790 h1         1 5IL       0.061200
     40 H12        113.1520   -12.7340    69.3980 h1         1 5IL       0.061200
     41 H13        113.5830   -14.0210    68.2620 h1         1 5IL       0.061200
     42 H14        115.6320   -12.8550    68.9430 h1         1 5IL       0.046950
     43 H15        114.9370   -11.2750    68.5460 h1         1 5IL       0.046950
     44 H16        114.9970   -14.9660    63.2590 ha         1 5IL       0.202000
     45 H17        117.2290   -14.3490    63.9380 hn         1 5IL       0.492000
     46 H18        112.5050   -11.3630    67.5370 hn         1 5IL       0.398000
     47 H20        115.2240   -17.9570    71.3820 hn         1 5IL       0.500500
     48 H21        114.4830   -16.5840    71.6310 hn         1 5IL       0.500500
     49 H8         114.8930   -12.2650    64.7970 h1         1 5IL       0.046950
@<TRIPOS>BOND
     1     1     2 ar  
     2     1     6 ar  
     3     1    30 1   
     4     2     3 ar  
     5     2    31 1   
     6     3     4 ar  
     7     3    29 1   
     8     4     5 ar  
     9     4     7 1   
    10     5     6 ar  
    11     5     9 1   
    12     6    32 1   
    13     7     8 1   
    14     7    28 2   
    15     8    20 2   
    16     8    21 1   
    17     9    20 1   
    18     9    27 2   
    19    10    11 ar  
    20    10    15 ar  
    21    10    21 1   
    22    11    12 ar  
    23    11    33 1   
    24    12    13 ar  
    25    12    34 1   
    26    13    14 ar  
    27    13    35 1   
    28    14    15 ar  
    29    14    36 1   
    30    15    22 1   
    31    16    17 1   
    32    16    22 1   
    33    16    37 1   
    34    16    49 1   
    35    17    23 1   
    36    17    38 1   
    37    17    39 1   
    38    18    19 1   
    39    18    23 1   
    40    18    40 1   
    41    18    41 1   
    42    19    22 1   
    43    19    42 1   
    44    19    43 1   
    45    20    44 1   
    46    21    45 1   
    47    23    46 1   
    48    24    29 1   
    49    24    47 1   
    50    24    48 1   
    51    25    29 2   
    52    26    29 2   
@<TRIPOS>SUBSTRUCTURE
     1 5IL         1 TEMP              0 ****  ****    0 ROOT
