@<TRIPOS>MOLECULE
5IL
   49    52     1     0     0
SMALL
abcg2


@<TRIPOS>ATOM
      1 C1         112.2290   -17.5290    67.7030 ca         1 5IL      -0.114000
      2 C2         113.2420   -17.3090    68.6280 ca         1 5IL      -0.035000
      3 C3         114.4420   -16.7230    68.2430 ca         1 5IL      -0.214500
      4 C4         114.6240   -16.3140    66.9070 ca         1 5IL      -0.025600
      5 C5         113.6000   -16.5660    65.9810 ca         1 5IL      -0.144600
      6 C6         112.4150   -17.1750    66.3790 ca         1 5IL      -0.025000
      7 C7         115.8700   -15.6780    66.4020 c          1 5IL       0.578900
      8 C8         115.8080   -14.9930    65.0650 cc         1 5IL       0.181800
      9 C10        113.7540   -16.1980    64.5330 c          1 5IL       0.595900
     10 C16        117.4660   -13.2970    65.6990 ca         1 5IL       0.263000
     11 C17        118.8300   -13.0820    65.5560 ca         1 5IL      -0.099000
     12 C18        119.5190   -12.2780    66.4570 ca         1 5IL      -0.107000
     13 C19        118.8320   -11.7030    67.5180 ca         1 5IL      -0.095000
     14 C20        117.4590   -11.8950    67.6500 ca         1 5IL      -0.122000
     15 C21        116.7450   -12.6720    66.7370 ca         1 5IL       0.240000
     16 C23        114.5900   -12.1480    65.7680 c6         1 5IL       0.138300
     17 C24        113.1170   -12.5480    65.7900 c6         1 5IL       0.143800
     18 C26        113.2750   -13.0430    68.1340 c6         1 5IL       0.143800
     19 C27        114.7390   -12.6200    68.1370 c6         1 5IL       0.138300
     20 C9         114.8660   -15.3780    64.1620 cd         1 5IL      -0.425200
     21 N15        116.8070   -14.1340    64.7600 nu         1 5IL      -0.817000
     22 N22        115.3400   -12.8570    66.8220 nh         1 5IL      -0.777400
     23 N25        112.4820   -12.3790    67.0970 n7         1 5IL      -0.840400
     24 N29        114.9430   -16.9490    70.8930 n8         1 5IL      -1.091100
     25 O12        116.6720   -17.6450    69.2700 o          1 5IL      -0.538500
     26 O13        116.1460   -15.2110    69.6140 o          1 5IL      -0.538500
     27 O14        112.8940   -16.5470    63.7200 o          1 5IL      -0.544100
     28 O28        116.9380   -15.7960    66.9660 o          1 5IL      -0.469100
     29 S11        115.7210   -16.5860    69.5130 sy         1 5IL       1.195600
     30 H1         111.3030   -17.9860    68.0250 ha         1 5IL       0.124000
     31 H2         113.0990   -17.5940    69.6580 ha         1 5IL       0.132000
     32 H3         111.6510   -17.3590    65.6380 ha         1 5IL       0.145000
     33 H4         119.3510   -13.5750    64.7450 ha         1 5IL       0.122000
     34 H5         120.5830   -12.1230    66.3400 ha         1 5IL       0.119000
     35 H6         119.3560   -11.0890    68.2400 ha         1 5IL       0.116000
     36 H7         116.9360   -11.4130    68.4620 ha         1 5IL       0.119000
     37 H9         114.6780   -11.0620    65.9240 h1         1 5IL       0.046950
     38 H10        112.5770   -11.9570    65.0480 h1         1 5IL       0.061200
     39 H11        113.0260   -13.5980    65.5060 h1         1 5IL       0.061200
     40 H12        112.8390   -12.8250    69.1110 h1         1 5IL       0.061200
     41 H13        113.2070   -14.1210    67.9730 h1         1 5IL       0.061200
     42 H14        115.2930   -13.1910    68.8780 h1         1 5IL       0.046950
     43 H15        114.7910   -11.5530    68.4060 h1         1 5IL       0.046950
     44 H16        114.8870   -14.9950    63.1480 ha         1 5IL       0.202000
     45 H17        116.8610   -13.8420    63.7940 hn         1 5IL       0.492000
     46 H18        112.4300   -11.3860    67.3110 hn         1 5IL       0.398000
     47 H20        115.2000   -17.8290    71.3180 hn         1 5IL       0.500500
     48 H21        114.7940   -16.1730    71.5230 hn         1 5IL       0.500500
     49 H8         115.0230   -12.3770    64.7960 h1         1 5IL       0.046950
@<TRIPOS>BOND
     1     1     2 ar  
     2     1     6 ar  
     3     1    30 1   
     4     2     3 ar  
     5     2    31 1   
     6     3     4 ar  
     7     3    29 1   
     8     4     5 ar  
     9     4     7 1   
    10     5     6 ar  
    11     5     9 1   
    12     6    32 1   
    13     7     8 1   
    14     7    28 2   
    15     8    20 2   
    16     8    21 1   
    17     9    20 1   
    18     9    27 2   
    19    10    11 ar  
    20    10    15 ar  
    21    10    21 1   
    22    11    12 ar  
    23    11    33 1   
    24    12    13 ar  
    25    12    34 1   
    26    13    14 ar  
    27    13    35 1   
    28    14    15 ar  
    29    14    36 1   
    30    15    22 1   
    31    16    17 1   
    32    16    22 1   
    33    16    37 1   
    34    16    49 1   
    35    17    23 1   
    36    17    38 1   
    37    17    39 1   
    38    18    19 1   
    39    18    23 1   
    40    18    40 1   
    41    18    41 1   
    42    19    22 1   
    43    19    42 1   
    44    19    43 1   
    45    20    44 1   
    46    21    45 1   
    47    23    46 1   
    48    24    29 1   
    49    24    47 1   
    50    24    48 1   
    51    25    29 2   
    52    26    29 2   
@<TRIPOS>SUBSTRUCTURE
     1 5IL         1 TEMP              0 ****  ****    0 ROOT
