@<TRIPOS>MOLECULE
5IM
   25    26     1     0     0
SMALL
bcc


@<TRIPOS>ATOM
      1 C1          -2.8600     0.7690     0.2360 cc         1 5IM      -0.308400
      2 C2          -2.6540    -0.5500    -0.0320 cd         1 5IM       0.618200
      3 C3          -0.5350     0.0670    -0.0180 cc         1 5IM       0.734300
      4 C4           3.6790    -0.2980    -0.1860 c6         1 5IM      -0.076400
      5 C5           3.0190     0.9130     0.4570 c6         1 5IM      -0.084400
      6 C6           2.7730    -1.5130    -0.0480 c6         1 5IM      -0.084400
      7 C7           1.6340     1.1640    -0.1210 c6         1 5IM       0.214800
      8 C8           1.3980    -1.2380    -0.6330 c6         1 5IM       0.214800
      9 N9          -1.3490    -0.9360    -0.1780 nd         1 5IM      -0.770000
     10 N10          0.8130    -0.0340    -0.0550 nh         1 5IM      -0.758300
     11 N11         -3.6230    -1.5120    -0.2270 nv         1 5IM      -0.895500
     12 S12         -1.3310     1.5920     0.2830 ss         1 5IM      -0.263300
     13 H1          -3.7870     1.2940     0.3980 h4         1 5IM       0.176000
     14 H111        -4.5270    -1.2760     0.1490 hn         1 5IM       0.392800
     15 H112        -3.3390    -2.4350     0.0650 hn         1 5IM       0.392800
     16 H42C         4.6520    -0.4890     0.2720 hc         1 5IM       0.043200
     17 H51C         2.9340     0.7580     1.5360 hc         1 5IM       0.051200
     18 H52C         3.6210     1.8110     0.3100 hc         1 5IM       0.051200
     19 H61C         3.1990    -2.3780    -0.5580 hc         1 5IM       0.051200
     20 H62C         2.6710    -1.7810     1.0070 hc         1 5IM       0.051200
     21 H71C         1.1580     1.9630     0.4490 h1         1 5IM       0.051450
     22 H72C         1.7170     1.5090    -1.1600 h1         1 5IM       0.051450
     23 H81C         1.4740    -1.1220    -1.7230 h1         1 5IM       0.051450
     24 H82C         0.7280    -2.0720    -0.4430 h1         1 5IM       0.051450
     25 H41C         3.8630    -0.0960    -1.2470 hc         1 5IM       0.043200
@<TRIPOS>BOND
     1     1     2 2   
     2     1    12 1   
     3     1    13 1   
     4     2     9 1   
     5     2    11 1   
     6     3     9 2   
     7     3    10 1   
     8     3    12 1   
     9     4     5 1   
    10     4     6 1   
    11     4    16 1   
    12     4    25 1   
    13     5     7 1   
    14     5    17 1   
    15     5    18 1   
    16     6     8 1   
    17     6    19 1   
    18     6    20 1   
    19     7    10 1   
    20     7    21 1   
    21     7    22 1   
    22     8    10 1   
    23     8    23 1   
    24     8    24 1   
    25    11    14 1   
    26    11    15 1   
@<TRIPOS>SUBSTRUCTURE
     1 5IM         1 TEMP              0 ****  ****    0 ROOT
