@<TRIPOS>MOLECULE
5IM
   25    26     1     0     0
SMALL
No Charge or Current Charge


@<TRIPOS>ATOM
      1 C1          -2.8930     0.7540     0.3880 cc         1 5IM      -0.370000
      2 C2          -2.6720    -0.5410     0.0330 cd         1 5IM       0.552900
      3 C3          -0.5990     0.1160    -0.0690 cc         1 5IM       0.734300
      4 C4           3.6900    -0.3290    -0.0670 c6         1 5IM      -0.076400
      5 C5           2.9800     0.9350     0.4720 c6         1 5IM      -0.084400
      6 C6           2.7250    -1.5350    -0.0280 c6         1 5IM      -0.084400
      7 C7           1.6620     1.2110    -0.2920 c6         1 5IM       0.214800
      8 C8           1.4090    -1.2300    -0.7850 c6         1 5IM       0.214800
      9 N9          -1.3990    -0.9250    -0.2240 nd         1 5IM      -0.770000
     10 N10          0.7680     0.0160    -0.2650 nh         1 5IM      -0.758300
     11 N11         -3.5890    -1.4930    -0.0840 nv         1 5IM      -1.005900
     12 S12         -1.3840     1.6160     0.4090 ss         1 5IM      -0.118400
     13 H1          -3.8220     1.2490     0.6320 h4         1 5IM       0.158000
     14 H111        -4.4890    -1.3420     0.3600 hn         1 5IM       0.448000
     15 H112        -3.2510    -2.4470    -0.1340 hn         1 5IM       0.448000
     16 H42C         4.5870    -0.5420     0.5310 hc         1 5IM       0.043200
     17 H51C         2.7620     0.8100     1.5410 hc         1 5IM       0.051200
     18 H52C         3.6460     1.8040     0.3880 hc         1 5IM       0.051200
     19 H61C         3.2080    -2.4180    -0.4680 hc         1 5IM       0.051200
     20 H62C         2.4940    -1.7920     1.0140 hc         1 5IM       0.051200
     21 H71C         1.1900     2.0940     0.1570 h1         1 5IM       0.051450
     22 H72C         1.8980     1.4710    -1.3340 h1         1 5IM       0.051450
     23 H81C         1.6280    -1.1130    -1.8570 h1         1 5IM       0.051450
     24 H82C         0.7500    -2.1050    -0.6890 h1         1 5IM       0.051450
     25 H41C         4.0300    -0.1550    -1.0970 hc         1 5IM       0.043200
@<TRIPOS>BOND
     1     1     2 2   
     2     1    12 1   
     3     1    13 1   
     4     2     9 1   
     5     2    11 1   
     6     3     9 2   
     7     3    10 1   
     8     3    12 1   
     9     4     5 1   
    10     4     6 1   
    11     4    16 1   
    12     4    25 1   
    13     5     7 1   
    14     5    17 1   
    15     5    18 1   
    16     6     8 1   
    17     6    19 1   
    18     6    20 1   
    19     7    10 1   
    20     7    21 1   
    21     7    22 1   
    22     8    10 1   
    23     8    23 1   
    24     8    24 1   
    25    11    14 1   
    26    11    15 1   
@<TRIPOS>SUBSTRUCTURE
     1 5IM         1 TEMP              0 ****  ****    0 ROOT
