@<TRIPOS>MOLECULE
5IN
   73    75     1     0     0
SMALL
No Charge or Current Charge


@<TRIPOS>ATOM
      1 C1           2.8190    -1.9270     1.8040 c3         1 5IN       0.205900
      2 O2           1.8150    -1.1780     1.1000 os         1 5IN      -0.459000
      3 C3           0.9840    -0.3520     1.9330 c3         1 5IN       0.138600
      4 C4          -0.0340     0.3820     1.0230 c3         1 5IN       0.041700
      5 N5          -1.0530    -0.5430     0.4630 ns         1 5IN      -0.481900
      6 C6          -2.0600    -1.1470     1.1920 c          1 5IN       0.595100
      7 C7          -2.9910    -2.1140     0.3760 c3         1 5IN       0.148500
      8 N8          -4.4260    -1.6790     0.2730 n7         1 5IN      -0.886300
      9 S9          -4.7870    -0.1630    -0.3140 s6         1 5IN       1.183100
     10 C10         -6.5820    -0.2260    -0.4330 c3         1 5IN      -0.248100
     11 C11         -7.2190     1.0480    -0.9770 ca         1 5IN      -0.082300
     12 C12         -7.4390     1.1970    -2.3600 ca         1 5IN      -0.084500
     13 C13         -8.0270     2.3710    -2.8610 ca         1 5IN      -0.110000
     14 C14         -8.3980     3.4030    -1.9820 ca         1 5IN      -0.099000
     15 C15         -8.1810     3.2590    -0.6020 ca         1 5IN      -0.110000
     16 C16         -7.5940     2.0840    -0.1000 ca         1 5IN      -0.084500
     17 O17         -4.3810     0.7890     0.7190 o          1 5IN      -0.528000
     18 O18         -4.2170    -0.1050    -1.6620 o          1 5IN      -0.528000
     19 C19         -2.9140    -3.5600     0.9450 c3         1 5IN       0.162600
     20 O20         -3.6750    -3.6970     2.1620 oh         1 5IN      -0.659000
     21 O21         -2.2070    -0.9110     2.3860 o          1 5IN      -0.604100
     22 C22          0.6820     1.1540    -0.1200 c          1 5IN       0.602100
     23 O23          0.4140     0.9810    -1.3040 o          1 5IN      -0.597100
     24 N24          1.6540     2.0490     0.2790 ns         1 5IN      -0.498900
     25 C25          2.5610     2.7510    -0.6300 c3         1 5IN       0.150300
     26 C26          3.9440     2.1090    -0.6300 ca         1 5IN      -0.089300
     27 C27          4.1110     0.7770    -1.0500 ca         1 5IN      -0.106000
     28 C28          5.3850     0.1820    -1.0530 ca         1 5IN      -0.086500
     29 C29          6.5260     0.9150    -0.6480 ca         1 5IN      -0.197900
     30 C30          6.3430     2.2460    -0.2030 ca         1 5IN      -0.086500
     31 C31          5.0680     2.8370    -0.2010 ca         1 5IN      -0.106000
     32 C32          7.8790     0.2780    -0.6270 ce         1 5IN       0.664800
     33 N33          8.0640    -0.9750    -0.6350 n2         1 5IN      -0.850100
     34 N34          8.9530     1.0700    -0.7860 nv         1 5IN      -1.033200
     35 C35          3.7470    -2.6170     0.8050 ca         1 5IN      -0.091300
     36 C36          5.1020    -2.8190     1.1400 ca         1 5IN      -0.094000
     37 C37          5.9690    -3.4670     0.2430 ca         1 5IN      -0.116500
     38 C38          5.4910    -3.9130    -1.0000 ca         1 5IN      -0.099000
     39 C39          4.1430    -3.7160    -1.3420 ca         1 5IN      -0.116500
     40 C40          3.2730    -3.0770    -0.4420 ca         1 5IN      -0.094000
     41 H11          3.4140    -1.2590     2.4420 h1         1 5IN       0.034200
     42 H12A         2.3540    -2.6840     2.4480 h1         1 5IN       0.034200
     43 H31A         1.5940     0.3850     2.4720 h1         1 5IN       0.042200
     44 H32          0.4530    -0.9560     2.6790 h1         1 5IN       0.042200
     45 H4          -0.5510     1.1350     1.6300 h1         1 5IN       0.092700
     46 HN5         -1.0000    -0.7530    -0.5280 hn         1 5IN       0.345500
     47 H7          -2.5620    -2.1630    -0.6340 h1         1 5IN       0.094700
     48 HN8         -4.7960    -1.6250     1.2240 hn         1 5IN       0.506000
     49 H101        -6.8090    -1.0790    -1.0810 h1         1 5IN       0.097700
     50 H102        -6.9510    -0.4400     0.5760 h1         1 5IN       0.097700
     51 H12         -7.1540     0.4030    -3.0470 ha         1 5IN       0.119000
     52 H13         -8.1940     2.4820    -3.9300 ha         1 5IN       0.115000
     53 H14         -8.8530     4.3120    -2.3710 ha         1 5IN       0.113000
     54 H15         -8.4680     4.0570     0.0800 ha         1 5IN       0.115000
     55 H16         -7.4290     1.9810     0.9710 ha         1 5IN       0.119000
     56 H191        -3.3070    -4.2480     0.1850 h1         1 5IN       0.037200
     57 H192        -1.8620    -3.8270     1.1140 h1         1 5IN       0.037200
     58 H20         -3.6380    -4.6450     2.4200 ho         1 5IN       0.451000
     59 H24          1.8170     2.1410     1.2740 hn         1 5IN       0.319500
     60 H251         2.6330     3.7990    -0.3100 h1         1 5IN       0.064200
     61 H252         2.1560     2.7460    -1.6510 h1         1 5IN       0.064200
     62 H27          3.2510     0.1950    -1.3750 ha         1 5IN       0.124000
     63 H28          5.4760    -0.8480    -1.3890 ha         1 5IN       0.123000
     64 H30          7.1890     2.8310     0.1520 ha         1 5IN       0.123000
     65 H31          4.9560     3.8640     0.1410 ha         1 5IN       0.124000
     66 H33          7.1520    -1.4250    -0.4870 hn         1 5IN       0.386400
     67 H341         9.7760     0.5710    -1.0970 hn         1 5IN       0.469000
     68 H342         8.7750     1.9560    -1.2420 hn         1 5IN       0.469000
     69 H36          5.4830    -2.4790     2.1010 ha         1 5IN       0.114000
     70 H37          7.0100    -3.6270     0.5140 ha         1 5IN       0.115500
     71 H38          6.1630    -4.4130    -1.6950 ha         1 5IN       0.117000
     72 H39          3.7700    -4.0650    -2.3030 ha         1 5IN       0.115500
     73 H40          2.2300    -2.9390    -0.7170 ha         1 5IN       0.114000
@<TRIPOS>BOND
     1     1     2 1   
     2     1    35 1   
     3     1    41 1   
     4     1    42 1   
     5     2     3 1   
     6     3     4 1   
     7     3    43 1   
     8     3    44 1   
     9     4     5 1   
    10     4    22 1   
    11     4    45 1   
    12     5     6 1   
    13     5    46 1   
    14     6     7 1   
    15     6    21 2   
    16     7     8 1   
    17     7    19 1   
    18     7    47 1   
    19     8     9 1   
    20     8    48 1   
    21     9    10 1   
    22     9    17 2   
    23     9    18 2   
    24    10    11 1   
    25    10    49 1   
    26    10    50 1   
    27    11    12 ar  
    28    11    16 ar  
    29    12    13 ar  
    30    12    51 1   
    31    13    14 ar  
    32    13    52 1   
    33    14    15 ar  
    34    14    53 1   
    35    15    16 ar  
    36    15    54 1   
    37    16    55 1   
    38    19    20 1   
    39    19    56 1   
    40    19    57 1   
    41    20    58 1   
    42    22    23 2   
    43    22    24 1   
    44    24    25 1   
    45    24    59 1   
    46    25    26 1   
    47    25    60 1   
    48    25    61 1   
    49    26    27 ar  
    50    26    31 ar  
    51    27    28 ar  
    52    27    62 1   
    53    28    29 ar  
    54    28    63 1   
    55    29    30 ar  
    56    29    32 1   
    57    30    31 ar  
    58    30    64 1   
    59    31    65 1   
    60    32    33 2   
    61    32    34 1   
    62    33    66 1   
    63    34    67 1   
    64    34    68 1   
    65    35    36 ar  
    66    35    40 ar  
    67    36    37 ar  
    68    36    69 1   
    69    37    38 ar  
    70    37    70 1   
    71    38    39 ar  
    72    38    71 1   
    73    39    40 ar  
    74    39    72 1   
    75    40    73 1   
@<TRIPOS>SUBSTRUCTURE
     1 5IN         1 TEMP              0 ****  ****    0 ROOT
