@<TRIPOS>MOLECULE
5IN
   73    75     1     0     0
SMALL
bcc


@<TRIPOS>ATOM
      1 C1           2.2350    -1.4950     2.3420 c3         1 5IN       0.182700
      2 O2           1.6880    -0.5760     1.4260 os         1 5IN      -0.412600
      3 C3           0.9170     0.4260     2.0260 c3         1 5IN       0.115400
      4 C4           0.3110     1.2720     0.9100 c3         1 5IN       0.041700
      5 N5          -0.6040     0.5140     0.0970 ns         1 5IN      -0.548900
      6 C6          -1.7810     0.0530     0.5340 c          1 5IN       0.662100
      7 C7          -2.5140    -0.8510    -0.4660 c3         1 5IN       0.148500
      8 N8          -3.8400    -1.1960    -0.0000 n7         1 5IN      -0.831100
      9 S9          -4.9990    -0.0200     0.1140 s6         1 5IN       1.213900
     10 C10         -6.2820    -0.6430    -0.9810 c3         1 5IN      -0.137300
     11 C11         -7.4230     0.3230    -1.0280 ca         1 5IN      -0.082300
     12 C12         -7.4360     1.3470    -1.9700 ca         1 5IN      -0.102500
     13 C13         -8.4870     2.2530    -2.0090 ca         1 5IN      -0.128000
     14 C14         -9.5310     2.1460    -1.1000 ca         1 5IN      -0.117000
     15 C15         -9.5210     1.1290    -0.1530 ca         1 5IN      -0.128000
     16 C16         -8.4700     0.2250    -0.1150 ca         1 5IN      -0.102500
     17 O17         -5.5450     0.0060     1.4630 o          1 5IN      -0.598800
     18 O18         -4.4650     1.2030    -0.4720 o          1 5IN      -0.598800
     19 C19         -1.7320    -2.1350    -0.7110 c3         1 5IN       0.139400
     20 O20         -1.5440    -2.7780     0.5250 oh         1 5IN      -0.596800
     21 O21         -2.2500     0.3100     1.6290 o          1 5IN      -0.604100
     22 C22          1.4020     1.8150    -0.0210 c          1 5IN       0.669100
     23 O23          1.3760     1.6080    -1.2230 o          1 5IN      -0.597100
     24 N24          2.3700     2.5220     0.5760 ns         1 5IN      -0.565900
     25 C25          3.4930     3.0670    -0.1440 c3         1 5IN       0.150300
     26 C26          4.6050     2.0840    -0.4360 ca         1 5IN      -0.089300
     27 C27          4.5150     0.7300    -0.1410 ca         1 5IN      -0.124000
     28 C28          5.5580    -0.1320    -0.4470 ca         1 5IN      -0.104500
     29 C29          6.7190     0.3350    -1.0520 ca         1 5IN      -0.197900
     30 C30          6.8110     1.6950    -1.3490 ca         1 5IN      -0.104500
     31 C31          5.7690     2.5540    -1.0420 ca         1 5IN      -0.124000
     32 C32          7.8340    -0.6080    -1.3490 ce         1 5IN       0.664800
     33 N33          8.1260    -1.6330    -0.6410 n2         1 5IN      -0.850100
     34 N34          8.5880    -0.2850    -2.4380 nv         1 5IN      -0.922800
     35 C35          2.9980    -2.5300     1.5680 ca         1 5IN      -0.091300
     36 C36          4.3400    -2.7760     1.8290 ca         1 5IN      -0.112000
     37 C37          5.0410    -3.7300     1.0990 ca         1 5IN      -0.134500
     38 C38          4.4020    -4.4410     0.0940 ca         1 5IN      -0.117000
     39 C39          3.0580    -4.2000    -0.1730 ca         1 5IN      -0.134500
     40 C40          2.3610    -3.2520     0.5600 ca         1 5IN      -0.112000
     41 H11          2.8990    -0.9930     3.0590 h1         1 5IN       0.034200
     42 H12A         1.4330    -1.9680     2.9260 h1         1 5IN       0.034200
     43 H31A         1.5190     1.0560     2.6950 h1         1 5IN       0.042200
     44 H32          0.1150     0.0030     2.6410 h1         1 5IN       0.042200
     45 H4          -0.2060     2.1200     1.3710 h1         1 5IN       0.092700
     46 HN5         -0.2900     0.2950    -0.8370 hn         1 5IN       0.345500
     47 H7          -2.5920    -0.3390    -1.4270 h1         1 5IN       0.094700
     48 HN8         -3.8520    -1.8140     0.8040 hn         1 5IN       0.450800
     49 H101        -5.8140    -0.7820    -1.9560 h1         1 5IN       0.097700
     50 H102        -6.5750    -1.6190    -0.5940 h1         1 5IN       0.097700
     51 H12         -6.6290     1.4310    -2.6870 ha         1 5IN       0.137000
     52 H13         -8.4900     3.0410    -2.7500 ha         1 5IN       0.133000
     53 H14        -10.3530     2.8490    -1.1320 ha         1 5IN       0.131000
     54 H15        -10.3340     1.0390     0.5550 ha         1 5IN       0.133000
     55 H16         -8.4700    -0.5690     0.6210 ha         1 5IN       0.137000
     56 H191        -2.2980    -2.7530    -1.4170 h1         1 5IN       0.037200
     57 H192        -0.7790    -1.8860    -1.1920 h1         1 5IN       0.037200
     58 H20         -1.2730    -3.6860     0.3640 ho         1 5IN       0.412000
     59 H24          2.3490     2.6560     1.5740 hn         1 5IN       0.319500
     60 H251         3.8870     3.8930     0.4480 h1         1 5IN       0.064200
     61 H252         3.1450     3.5020    -1.0830 h1         1 5IN       0.064200
     62 H27          3.6310     0.3210     0.3290 ha         1 5IN       0.142000
     63 H28          5.4390    -1.1850    -0.2230 ha         1 5IN       0.141000
     64 H30          7.7070     2.0960    -1.8040 ha         1 5IN       0.141000
     65 H31          5.8670     3.6080    -1.2730 ha         1 5IN       0.142000
     66 H33          7.5420    -1.6750     0.1850 hn         1 5IN       0.386400
     67 H341         9.2590    -0.9760    -2.7340 hn         1 5IN       0.413800
     68 H342         8.1500     0.2160    -3.1920 hn         1 5IN       0.413800
     69 H36          4.8480    -2.2150     2.6060 ha         1 5IN       0.132000
     70 H37          6.0860    -3.9130     1.3130 ha         1 5IN       0.133500
     71 H38          4.9460    -5.1800    -0.4790 ha         1 5IN       0.135000
     72 H39          2.5520    -4.7530    -0.9540 ha         1 5IN       0.133500
     73 H40          1.3120    -3.0740     0.3560 ha         1 5IN       0.132000
@<TRIPOS>BOND
     1     1     2 1   
     2     1    35 1   
     3     1    41 1   
     4     1    42 1   
     5     2     3 1   
     6     3     4 1   
     7     3    43 1   
     8     3    44 1   
     9     4     5 1   
    10     4    22 1   
    11     4    45 1   
    12     5     6 1   
    13     5    46 1   
    14     6     7 1   
    15     6    21 2   
    16     7     8 1   
    17     7    19 1   
    18     7    47 1   
    19     8     9 1   
    20     8    48 1   
    21     9    10 1   
    22     9    17 2   
    23     9    18 2   
    24    10    11 1   
    25    10    49 1   
    26    10    50 1   
    27    11    12 ar  
    28    11    16 ar  
    29    12    13 ar  
    30    12    51 1   
    31    13    14 ar  
    32    13    52 1   
    33    14    15 ar  
    34    14    53 1   
    35    15    16 ar  
    36    15    54 1   
    37    16    55 1   
    38    19    20 1   
    39    19    56 1   
    40    19    57 1   
    41    20    58 1   
    42    22    23 2   
    43    22    24 1   
    44    24    25 1   
    45    24    59 1   
    46    25    26 1   
    47    25    60 1   
    48    25    61 1   
    49    26    27 ar  
    50    26    31 ar  
    51    27    28 ar  
    52    27    62 1   
    53    28    29 ar  
    54    28    63 1   
    55    29    30 ar  
    56    29    32 1   
    57    30    31 ar  
    58    30    64 1   
    59    31    65 1   
    60    32    33 2   
    61    32    34 1   
    62    33    66 1   
    63    34    67 1   
    64    34    68 1   
    65    35    36 ar  
    66    35    40 ar  
    67    36    37 ar  
    68    36    69 1   
    69    37    38 ar  
    70    37    70 1   
    71    38    39 ar  
    72    38    71 1   
    73    39    40 ar  
    74    39    72 1   
    75    40    73 1   
@<TRIPOS>SUBSTRUCTURE
     1 5IN         1 TEMP              0 ****  ****    0 ROOT
