@<TRIPOS>MOLECULE
5IP
   39    39     1     0     0
SMALL
bcc


@<TRIPOS>ATOM
      1 O46         -4.4650    -0.6250    -0.6610 o          1 5IP      -0.994833
      2 P6          -3.0670    -1.0360    -0.1880 p5         1 5IP       1.328900
      3 O26         -2.4490    -0.0580     0.8100 o          1 5IP      -0.994833
      4 O36         -2.9640    -2.4990     0.2460 o          1 5IP      -0.994833
      5 O16         -2.2080    -0.9110    -1.6280 os         1 5IP      -0.567200
      6 C6          -0.8790    -1.3820    -1.7470 c6         1 5IP       0.191100
      7 C1          -0.7260    -1.8990    -3.1890 c6         1 5IP       0.234100
      8 O11          0.4430    -2.6470    -3.3780 os         1 5IP      -0.510200
      9 P1           0.4040    -4.3130    -3.1940 p5         1 5IP       1.323900
     10 O41          0.0790    -4.6090    -1.7290 o          1 5IP      -0.992500
     11 O31          1.8300    -4.6880    -3.6040 o          1 5IP      -0.992500
     12 O21         -0.6700    -4.8290    -4.1560 o          1 5IP      -0.992500
     13 C5           0.1180    -0.2700    -1.3890 c6         1 5IP       0.218100
     14 O15          1.3890    -0.8330    -1.1720 os         1 5IP      -0.501700
     15 P5           2.2980    -0.2890     0.1260 p5         1 5IP       1.320900
     16 O45          2.4120     1.2330    -0.0030 o          1 5IP      -0.992333
     17 O35          3.6160    -1.0340    -0.0900 o          1 5IP      -0.992333
     18 O25          1.5450    -0.7190     1.3870 o          1 5IP      -0.992333
     19 C4           0.2270     0.8400    -2.4420 c6         1 5IP       0.086100
     20 O14         -0.8710     1.7370    -2.2540 oh         1 5IP      -0.625800
     21 C3           0.2640     0.3550    -3.9020 c6         1 5IP       0.218100
     22 O13          1.5520    -0.0690    -4.2480 os         1 5IP      -0.501700
     23 P3           2.5580     1.0110    -5.0510 p5         1 5IP       1.320900
     24 O43          2.0420     1.0910    -6.4880 o          1 5IP      -0.992333
     25 O33          3.9150     0.3140    -4.9260 o          1 5IP      -0.992333
     26 O23          2.4650     2.3470    -4.3080 o          1 5IP      -0.992333
     27 C2          -0.7940    -0.7170    -4.1490 c6         1 5IP       0.191100
     28 O12         -0.7790    -1.1430    -5.4850 os         1 5IP      -0.567200
     29 P2          -2.0360    -0.6460    -6.4780 p5         1 5IP       1.328900
     30 O22         -1.5900    -1.1990    -7.8330 o          1 5IP      -0.994833
     31 O32         -3.3000    -1.3130    -5.9250 o          1 5IP      -0.994833
     32 O42         -2.0930     0.8800    -6.4020 o          1 5IP      -0.994833
     33 H6          -0.7100    -2.2250    -1.0700 h1         1 5IP       0.033200
     34 H1          -1.6090    -2.5190    -3.4050 h1         1 5IP      -0.002300
     35 H5          -0.2700     0.1790    -0.4660 h1         1 5IP      -0.010800
     36 H4           1.1680     1.3640    -2.2540 h1         1 5IP       0.055700
     37 HO14        -0.7820     2.4090    -2.9360 ho         1 5IP       0.316000
     38 H3          -0.0380     1.2000    -4.5430 h1         1 5IP      -0.010800
     39 H2          -1.7470    -0.2320    -3.9100 h1         1 5IP       0.033200
@<TRIPOS>BOND
     1     1     2 1   
     2     2     3 1   
     3     2     4 1   
     4     2     5 1   
     5     5     6 1   
     6     6     7 1   
     7     6    13 1   
     8     6    33 1   
     9     7     8 1   
    10     7    27 1   
    11     7    34 1   
    12     8     9 1   
    13     9    10 1   
    14     9    11 1   
    15     9    12 1   
    16    13    14 1   
    17    13    19 1   
    18    13    35 1   
    19    14    15 1   
    20    15    16 1   
    21    15    17 1   
    22    15    18 1   
    23    19    20 1   
    24    19    21 1   
    25    19    36 1   
    26    20    37 1   
    27    21    22 1   
    28    21    27 1   
    29    21    38 1   
    30    22    23 1   
    31    23    24 1   
    32    23    25 1   
    33    23    26 1   
    34    27    28 1   
    35    27    39 1   
    36    28    29 1   
    37    29    30 1   
    38    29    31 1   
    39    29    32 1   
@<TRIPOS>SUBSTRUCTURE
     1 5IP         1 TEMP              0 ****  ****    0 ROOT
