@<TRIPOS>MOLECULE
5IP
   39    39     1     0     0
SMALL
No Charge or Current Charge


@<TRIPOS>ATOM
      1 O46         -4.4710    -0.6870    -0.3290 o          1 5IP      -0.994833
      2 P6          -3.0370    -1.0450    -0.1500 p5         1 5IP       1.328900
      3 O26         -2.4320    -0.0770     0.8030 o          1 5IP      -0.994833
      4 O36         -2.9720    -2.4190     0.4170 o          1 5IP      -0.994833
      5 O16         -2.3160    -0.9970    -1.5930 os         1 5IP      -0.590400
      6 C6          -0.9240    -1.3860    -1.7870 c6         1 5IP       0.214300
      7 C1          -0.7300    -1.9030    -3.2580 c6         1 5IP       0.257300
      8 O11          0.4370    -2.7490    -3.4390 os         1 5IP      -0.533400
      9 P1           0.3470    -4.3370    -3.1640 p5         1 5IP       1.323900
     10 O41          0.0240    -4.6250    -1.7400 o          1 5IP      -0.992500
     11 O31          1.6640    -4.9600    -3.4770 o          1 5IP      -0.992500
     12 O21         -0.6790    -4.9670    -4.0390 o          1 5IP      -0.992500
     13 C5           0.1140    -0.2510    -1.4210 c6         1 5IP       0.241300
     14 O15          1.4350    -0.8030    -1.2000 os         1 5IP      -0.524900
     15 P5           2.3100    -0.3310     0.0730 p5         1 5IP       1.320900
     16 O45          2.4410     1.1520     0.1200 o          1 5IP      -0.992333
     17 O35          3.6760    -0.9190    -0.0230 o          1 5IP      -0.992333
     18 O25          1.6930    -0.8110     1.3410 o          1 5IP      -0.992333
     19 C4           0.1500     0.9320    -2.4700 c6         1 5IP       0.109300
     20 O14         -1.0350     1.7600    -2.3670 oh         1 5IP      -0.688000
     21 C3           0.3070     0.4100    -3.9450 c6         1 5IP       0.241300
     22 O13          1.6610    -0.0080    -4.2450 os         1 5IP      -0.524900
     23 P3           2.6890     1.0480    -4.9090 p5         1 5IP       1.320900
     24 O43          2.2540     1.4150    -6.2850 o          1 5IP      -0.992333
     25 O33          4.0410     0.4280    -5.0030 o          1 5IP      -0.992333
     26 O23          2.7950     2.2860    -4.0890 o          1 5IP      -0.992333
     27 C2          -0.7650    -0.6950    -4.2550 c6         1 5IP       0.214300
     28 O12         -0.7920    -1.0990    -5.6570 os         1 5IP      -0.590400
     29 P2          -2.0880    -0.7540    -6.5500 p5         1 5IP       1.328900
     30 O22         -1.8670    -1.2440    -7.9390 o          1 5IP      -0.994833
     31 O32         -3.2920    -1.4280    -5.9940 o          1 5IP      -0.994833
     32 O42         -2.3130     0.7160    -6.5930 o          1 5IP      -0.994833
     33 H6          -0.7350    -2.2250    -1.1050 h1         1 5IP       0.033200
     34 H1          -1.6100    -2.5210    -3.4900 h1         1 5IP      -0.002300
     35 H5          -0.2040     0.1870    -0.4660 h1         1 5IP      -0.010800
     36 H4           1.0250     1.5530    -2.2350 h1         1 5IP       0.055700
     37 HO14        -0.8720     2.5560    -2.9140 ho         1 5IP       0.355000
     38 H3           0.0760     1.2600    -4.6050 h1         1 5IP      -0.010800
     39 H2          -1.7290    -0.2050    -4.0550 h1         1 5IP       0.033200
@<TRIPOS>BOND
     1     1     2 1   
     2     2     3 1   
     3     2     4 1   
     4     2     5 1   
     5     5     6 1   
     6     6     7 1   
     7     6    13 1   
     8     6    33 1   
     9     7     8 1   
    10     7    27 1   
    11     7    34 1   
    12     8     9 1   
    13     9    10 1   
    14     9    11 1   
    15     9    12 1   
    16    13    14 1   
    17    13    19 1   
    18    13    35 1   
    19    14    15 1   
    20    15    16 1   
    21    15    17 1   
    22    15    18 1   
    23    19    20 1   
    24    19    21 1   
    25    19    36 1   
    26    20    37 1   
    27    21    22 1   
    28    21    27 1   
    29    21    38 1   
    30    22    23 1   
    31    23    24 1   
    32    23    25 1   
    33    23    26 1   
    34    27    28 1   
    35    27    39 1   
    36    28    29 1   
    37    29    30 1   
    38    29    31 1   
    39    29    32 1   
@<TRIPOS>SUBSTRUCTURE
     1 5IP         1 TEMP              0 ****  ****    0 ROOT
