@<TRIPOS>MOLECULE
5IQ
   19    20     1     0     0
SMALL
No Charge or Current Charge


@<TRIPOS>ATOM
      1 CAB          0.0100     0.4660    -0.0150 ca         1 5IQ      -0.048000
      2 CAF         -0.9980     1.4580    -0.0200 ca         1 5IQ      -0.139000
      3 CAK         -2.3500     1.0710    -0.0040 ca         1 5IQ       0.311900
      4 NAH         -2.7500    -0.2200     0.0160 nb         1 5IQ      -0.659000
      5 CAD         -1.7890    -1.1750     0.0200 ca         1 5IQ       0.353900
      6 CAA         -0.4090    -0.8830     0.0050 ca         1 5IQ      -0.064000
      7 CAC          0.5440    -1.9190     0.0080 ca         1 5IQ      -0.131000
      8 CAG          1.9140    -1.6130    -0.0090 ca         1 5IQ      -0.066000
      9 CAI          2.3340    -0.2720    -0.0270 ca         1 5IQ      -0.187000
     10 CAE          1.3950     0.7720    -0.0300 ca         1 5IQ       0.299000
     11 NAJ          1.8630     2.0640    -0.0440 nv         1 5IQ      -1.067000
     12 HAF         -0.7590     2.5160    -0.0390 ha         1 5IQ       0.117000
     13 HAK         -3.1390     1.8220    -0.0090 h4         1 5IQ       0.018100
     14 HAD         -2.1390    -2.2060     0.0360 h4         1 5IQ       0.018100
     15 HAC          0.2260    -2.9600     0.0230 ha         1 5IQ       0.119000
     16 HAG          2.6510    -2.4140    -0.0070 ha         1 5IQ       0.113000
     17 HAI          3.3970    -0.0480    -0.0400 ha         1 5IQ       0.112000
     18 HAJ1         2.8570     2.2400     0.0900 hn         1 5IQ       0.450000
     19 HAJ2         1.2250     2.8390     0.1220 hn         1 5IQ       0.450000
@<TRIPOS>BOND
     1     1     2 ar  
     2     1     6 ar  
     3     1    10 ar  
     4     2     3 ar  
     5     2    12 1   
     6     3     4 ar  
     7     3    13 1   
     8     4     5 ar  
     9     5     6 ar  
    10     5    14 1   
    11     6     7 ar  
    12     7     8 ar  
    13     7    15 1   
    14     8     9 ar  
    15     8    16 1   
    16     9    10 ar  
    17     9    17 1   
    18    10    11 1   
    19    11    18 1   
    20    11    19 1   
@<TRIPOS>SUBSTRUCTURE
     1 5IQ         1 TEMP              0 ****  ****    0 ROOT
