@<TRIPOS>MOLECULE
5IQ
   19    20     1     0     0
SMALL
abcg2


@<TRIPOS>ATOM
      1 CAB          0.0140     0.4710    -0.0250 ca         1 5IQ      -0.048000
      2 CAF         -1.0040     1.4500    -0.0550 ca         1 5IQ      -0.139000
      3 CAK         -2.3150     1.0640    -0.0270 ca         1 5IQ       0.311900
      4 NAH         -2.7120    -0.2260     0.0280 nb         1 5IQ      -0.659000
      5 CAD         -1.7870    -1.1450     0.0450 ca         1 5IQ       0.353900
      6 CAA         -0.3960    -0.8840     0.0140 ca         1 5IQ      -0.064000
      7 CAC          0.5540    -1.9270     0.0140 ca         1 5IQ      -0.131000
      8 CAG          1.8840    -1.6070    -0.0230 ca         1 5IQ      -0.066000
      9 CAI          2.3100    -0.2680    -0.0440 ca         1 5IQ      -0.187000
     10 CAE          1.4100     0.7800    -0.0430 ca         1 5IQ       0.299000
     11 NAJ          1.8280     2.0880    -0.1180 nv         1 5IQ      -1.067000
     12 HAF         -0.7750     2.5060    -0.1100 ha         1 5IQ       0.117000
     13 HAK         -3.1030     1.8070    -0.0520 h4         1 5IQ       0.018100
     14 HAD         -2.1200    -2.1790     0.0840 h4         1 5IQ       0.018100
     15 HAC          0.2240    -2.9580     0.0420 ha         1 5IQ       0.119000
     16 HAG          2.6320    -2.3890    -0.0250 ha         1 5IQ       0.113000
     17 HAI          3.3720    -0.0540    -0.0580 ha         1 5IQ       0.112000
     18 HAJ1         2.8060     2.2350     0.0730 hn         1 5IQ       0.450000
     19 HAJ2         1.2610     2.7730     0.3560 hn         1 5IQ       0.450000
@<TRIPOS>BOND
     1     1     2 ar  
     2     1     6 ar  
     3     1    10 ar  
     4     2     3 ar  
     5     2    12 1   
     6     3     4 ar  
     7     3    13 1   
     8     4     5 ar  
     9     5     6 ar  
    10     5    14 1   
    11     6     7 ar  
    12     7     8 ar  
    13     7    15 1   
    14     8     9 ar  
    15     8    16 1   
    16     9    10 ar  
    17     9    17 1   
    18    10    11 1   
    19    11    18 1   
    20    11    19 1   
@<TRIPOS>SUBSTRUCTURE
     1 5IQ         1 TEMP              0 ****  ****    0 ROOT
