@<TRIPOS>MOLECULE
5IS
   73    76     1     0     0
SMALL
No Charge or Current Charge


@<TRIPOS>ATOM
      1 C4          25.7080   -25.4510   -45.9280 ca         1 5IS      -0.102000
      2 C14         31.1950   -20.4730   -46.8410 c2         1 5IS       0.456300
      3 C5          24.9840   -25.7340   -44.7570 ca         1 5IS      -0.037000
      4 C6          25.0750   -27.0190   -44.1760 ca         1 5IS       0.088000
      5 C11         29.4540   -22.9490   -47.9380 ce         1 5IS      -0.141000
      6 C7          27.1940   -26.1440   -47.8670 c3         1 5IS       0.001100
      7 C8          28.3900   -25.2220   -47.6770 c2         1 5IS      -0.087400
      8 C9          29.5960   -25.9490   -47.0940 c3         1 5IS      -0.061900
      9 C10         28.3490   -23.9130   -48.0260 ce         1 5IS      -0.183000
     10 C12         29.2870   -21.6330   -48.1930 c2         1 5IS      -0.258200
     11 C13         30.3660   -20.5520   -48.1440 c3         1 5IS       0.163200
     12 C3          26.4570   -26.4540   -46.5690 ca         1 5IS      -0.056300
     13 C1          25.8300   -28.0320   -44.8050 ca         1 5IS       0.116100
     14 C17         33.1380   -19.8020   -45.7040 c          1 5IS       0.783500
     15 C19         31.0960   -20.2650   -44.3980 c6         1 5IS       0.195300
     16 C2          26.5120   -27.7450   -46.0090 ca         1 5IS      -0.122000
     17 C20         30.6400   -21.1050   -45.5860 c6         1 5IS      -0.228700
     18 C22         30.8080   -20.8950   -42.9950 c3         1 5IS      -0.044700
     19 C23         29.3290   -21.2560   -42.7730 cx         1 5IS       0.092300
     20 C24         31.2840   -19.9720   -41.8450 c3         1 5IS      -0.082100
     21 C25         28.6810   -22.5850   -43.1100 cx         1 5IS       0.107000
     22 C26         27.1620   -22.5950   -43.4040 c3         1 5IS       0.191300
     23 C27         26.4470   -23.8800   -42.9390 c3         1 5IS      -0.189400
     24 C28         24.9300   -23.7910   -43.1540 c          1 5IS       0.605100
     25 C36         26.6370   -30.3740   -44.7740 c3         1 5IS       0.148900
     26 C38         29.4610   -23.7450   -43.7480 c3         1 5IS      -0.077100
     27 N16         32.3280   -19.8380   -46.8410 ne         1 5IS      -0.637100
     28 N31         24.3040   -24.6690   -44.0760 n          1 5IS      -0.242400
     29 O15         29.7410   -19.2730   -48.4400 os         1 5IS      -0.414000
     30 O18         32.5140   -20.0780   -44.5110 os         1 5IS      -0.455100
     31 O21         34.3300   -19.5550   -45.7480 o          1 5IS      -0.456000
     32 O29         29.0680   -22.2500   -41.7550 op         1 5IS      -0.423000
     33 O30         26.8970   -22.4050   -44.8000 oh         1 5IS      -0.725000
     34 O32         24.2710   -22.9900   -42.4980 o          1 5IS      -0.593100
     35 O34         25.8850   -29.2830   -44.2130 os         1 5IS      -0.348100
     36 Cl33        24.2530   -27.3570   -42.6460 cl         1 5IS      -0.161000
     37 H1          25.6800   -24.4480   -46.3470 ha         1 5IS       0.126000
     38 H2          30.4400   -23.3280   -47.6660 ha         1 5IS       0.172000
     39 H3          26.4860   -25.6930   -48.5730 hc         1 5IS       0.058700
     40 H4          27.5180   -27.0720   -48.3540 hc         1 5IS       0.058700
     41 H5          30.1080   -26.5360   -47.8650 hc         1 5IS       0.046033
     42 H6          30.3290   -25.2680   -46.6520 hc         1 5IS       0.046033
     43 H7          29.2980   -26.6400   -46.2960 hc         1 5IS       0.046033
     44 H8          27.4150   -23.5110   -48.4230 ha         1 5IS       0.172000
     45 H9          28.3030   -21.2650   -48.4880 ha         1 5IS       0.182000
     46 H10         31.0770   -20.7810   -48.9480 h1         1 5IS       0.085700
     47 H11         30.6120   -19.2780   -44.4510 h1         1 5IS       0.056700
     48 H12         27.0970   -28.5080   -46.5140 ha         1 5IS       0.130000
     49 H13         29.5440   -21.1420   -45.6180 hc         1 5IS       0.092200
     50 H14         31.0150   -22.1320   -45.5050 hc         1 5IS       0.092200
     51 H15         31.4100   -21.8060   -42.9090 hc         1 5IS       0.071700
     52 H16         28.6770   -20.3820   -42.7300 h1         1 5IS       0.083700
     53 H17         31.0980   -20.4390   -40.8700 hc         1 5IS       0.048367
     54 H18         32.3590   -19.7710   -41.9160 hc         1 5IS       0.048367
     55 H19         30.7540   -19.0110   -41.8690 hc         1 5IS       0.048367
     56 H20         26.7160   -21.7650   -42.8350 h1         1 5IS       0.063700
     57 H21         26.8670   -24.7430   -43.4600 hc         1 5IS       0.085200
     58 H22         26.6270   -23.9960   -41.8650 hc         1 5IS       0.085200
     59 H23         22.3560   -24.8390   -43.2630 h1         1 5IS       0.047033
     60 H24         22.5380   -23.5970   -44.5410 h1         1 5IS       0.047033
     61 H25         22.4980   -25.3290   -44.9750 h1         1 5IS       0.047033
     62 H26         26.5420   -31.2650   -44.1430 h1         1 5IS       0.041033
     63 H27         26.2690   -30.6270   -45.7770 h1         1 5IS       0.041033
     64 H28         27.7030   -30.1180   -44.8430 h1         1 5IS       0.041033
     65 H29         28.4250   -17.7800   -47.7960 h1         1 5IS       0.034700
     66 H30         28.0900   -19.3900   -47.1330 h1         1 5IS       0.034700
     67 H31         29.4690   -18.4390   -46.5250 h1         1 5IS       0.034700
     68 H32         30.5310   -23.7070   -43.5260 hc         1 5IS       0.052367
     69 H33         29.1080   -24.7140   -43.3800 hc         1 5IS       0.052367
     70 H34         29.3430   -23.7440   -44.8370 hc         1 5IS       0.052367
     71 H35         27.0140   -21.4490   -44.9990 ho         1 5IS       0.510000
     72 C35         22.8350   -24.6050   -44.2220 c3         1 5IS       0.097300
     73 C37         28.8920   -18.7000   -47.4220 c3         1 5IS       0.144900
@<TRIPOS>BOND
     1     1     3 ar  
     2     1    12 ar  
     3     1    37 1   
     4     2    11 1   
     5     2    17 1   
     6     2    27 2   
     7     3     4 ar  
     8     3    28 1   
     9     4    13 ar  
    10     4    36 1   
    11     5     9 1   
    12     5    10 2   
    13     5    38 1   
    14     6     7 1   
    15     6    12 1   
    16     6    39 1   
    17     6    40 1   
    18     7     8 1   
    19     7     9 2   
    20     8    41 1   
    21     8    42 1   
    22     8    43 1   
    23     9    44 1   
    24    10    11 1   
    25    10    45 1   
    26    11    29 1   
    27    11    46 1   
    28    12    16 ar  
    29    13    16 ar  
    30    13    35 1   
    31    14    27 1   
    32    14    30 1   
    33    14    31 2   
    34    15    17 1   
    35    15    18 1   
    36    15    30 1   
    37    15    47 1   
    38    16    48 1   
    39    17    49 1   
    40    17    50 1   
    41    18    19 1   
    42    18    20 1   
    43    18    51 1   
    44    19    21 1   
    45    19    32 1   
    46    19    52 1   
    47    20    53 1   
    48    20    54 1   
    49    20    55 1   
    50    21    22 1   
    51    21    26 1   
    52    21    32 1   
    53    22    23 1   
    54    22    33 1   
    55    22    56 1   
    56    23    24 1   
    57    23    57 1   
    58    23    58 1   
    59    24    28 1   
    60    24    34 2   
    61    25    35 1   
    62    25    62 1   
    63    25    63 1   
    64    25    64 1   
    65    26    68 1   
    66    26    69 1   
    67    26    70 1   
    68    28    72 1   
    69    29    73 1   
    70    33    71 1   
    71    59    72 1   
    72    60    72 1   
    73    61    72 1   
    74    65    73 1   
    75    66    73 1   
    76    67    73 1   
@<TRIPOS>SUBSTRUCTURE
     1 5IS         1 TEMP              0 ****  ****    0 ROOT
