@<TRIPOS>MOLECULE
5IS
   73    76     1     0     0
SMALL
abcg2


@<TRIPOS>ATOM
      1 C4          25.6800   -25.4300   -45.8010 ca         1 5IS      -0.102000
      2 C14         31.1770   -20.3000   -46.4530 c2         1 5IS       0.456300
      3 C5          25.3200   -25.8760   -44.5410 ca         1 5IS      -0.037000
      4 C6          25.6080   -27.1880   -44.1720 ca         1 5IS       0.088000
      5 C11         29.5020   -23.0360   -47.9180 ce         1 5IS      -0.141000
      6 C7          26.7540   -25.7330   -48.0450 c3         1 5IS       0.001100
      7 C8          28.1270   -25.1090   -47.9780 c2         1 5IS      -0.087400
      8 C9          29.2590   -26.0840   -47.8890 c3         1 5IS      -0.061900
      9 C10         28.2540   -23.7720   -47.9800 ce         1 5IS      -0.183000
     10 C12         29.5900   -21.7050   -47.8300 c2         1 5IS      -0.258200
     11 C13         30.9180   -21.0050   -47.7760 c3         1 5IS       0.163200
     12 C3          26.3290   -26.2680   -46.7010 ca         1 5IS      -0.056300
     13 C1          26.2630   -28.0410   -45.0550 ca         1 5IS       0.116100
     14 C17         32.3120   -18.6940   -45.2520 c          1 5IS       0.783500
     15 C19         30.6830   -19.9800   -44.0720 c6         1 5IS       0.195300
     16 C2          26.6050   -27.5750   -46.3190 ca         1 5IS      -0.122000
     17 C20         30.7520   -20.9880   -45.1980 c6         1 5IS      -0.228700
     18 C22         30.5650   -20.6210   -42.6910 c3         1 5IS      -0.044700
     19 C23         29.1730   -21.1930   -42.5700 cx         1 5IS       0.092300
     20 C24         30.7890   -19.6250   -41.5540 c3         1 5IS      -0.082100
     21 C25         28.7540   -22.5640   -42.8730 cx         1 5IS       0.107000
     22 C26         27.2930   -22.7280   -43.2570 c3         1 5IS       0.191300
     23 C27         26.7290   -24.0760   -42.8020 c3         1 5IS      -0.189400
     24 C28         25.2170   -24.1020   -42.8680 c          1 5IS       0.605100
     25 C36         25.6670   -30.2990   -45.1080 c3         1 5IS       0.148900
     26 C38         29.6960   -23.6330   -43.3580 c3         1 5IS      -0.077100
     27 N16         31.8370   -19.2090   -46.4610 ne         1 5IS      -0.637100
     28 N31         24.6160   -25.0300   -43.6530 n          1 5IS      -0.242400
     29 O15         31.1950   -20.1930   -48.8790 os         1 5IS      -0.414000
     30 O18         31.8610   -19.1660   -44.0920 os         1 5IS      -0.455100
     31 O21         33.1650   -17.8470   -45.2420 o          1 5IS      -0.456000
     32 O29         28.9330   -22.1290   -41.5310 op         1 5IS      -0.423000
     33 O30         27.2260   -22.5650   -44.6550 oh         1 5IS      -0.725000
     34 O32         24.5540   -23.3160   -42.2080 o          1 5IS      -0.593100
     35 O34         26.5790   -29.2980   -44.6690 os         1 5IS      -0.348100
     36 CL33        25.1740   -27.7500   -42.6040 cl         1 5IS      -0.161000
     37 H1          25.4440   -24.4110   -46.0830 ha         1 5IS       0.126000
     38 H2          30.4270   -23.6050   -47.9440 ha         1 5IS       0.172000
     39 H3          26.0270   -24.9950   -48.3860 hc         1 5IS       0.058700
     40 H4          26.7600   -26.5460   -48.7760 hc         1 5IS       0.058700
     41 H5          29.2250   -26.7760   -48.7330 hc         1 5IS       0.046033
     42 H6          30.2420   -25.6210   -47.8760 hc         1 5IS       0.046033
     43 H7          29.1720   -26.6930   -46.9870 hc         1 5IS       0.046033
     44 H8          27.3510   -23.1720   -48.0360 ha         1 5IS       0.172000
     45 H9          28.6870   -21.1020   -47.7910 ha         1 5IS       0.182000
     46 H10         31.6910   -21.7890   -47.7870 h1         1 5IS       0.085700
     47 H11         29.8240   -19.3160   -44.2350 h1         1 5IS       0.056700
     48 H12         27.1040   -28.2500   -47.0050 ha         1 5IS       0.130000
     49 H13         29.7810   -21.4610   -45.3390 hc         1 5IS       0.092200
     50 H14         31.4650   -21.7910   -44.9770 hc         1 5IS       0.092200
     51 H15         31.3100   -21.4190   -42.6090 hc         1 5IS       0.071700
     52 H16         28.4010   -20.4220   -42.6560 h1         1 5IS       0.083700
     53 H17         30.6230   -20.1140   -40.5940 hc         1 5IS       0.048367
     54 H18         31.8050   -19.2350   -41.5490 hc         1 5IS       0.048367
     55 H19         30.1010   -18.7800   -41.6220 hc         1 5IS       0.048367
     56 H20         26.7310   -21.9370   -42.7440 h1         1 5IS       0.063700
     57 H21         27.1950   -24.8870   -43.3600 hc         1 5IS       0.085200
     58 H22         26.9870   -24.2220   -41.7480 hc         1 5IS       0.085200
     59 H23         22.7780   -25.1700   -42.6350 h1         1 5IS       0.047033
     60 H24         22.7110   -24.2620   -44.1540 h1         1 5IS       0.047033
     61 H25         22.8650   -26.0210   -44.1780 h1         1 5IS       0.047033
     62 H26         26.0320   -31.2510   -44.7280 h1         1 5IS       0.041033
     63 H27         24.6610   -30.1240   -44.7180 h1         1 5IS       0.041033
     64 H28         25.6200   -30.3490   -46.1990 h1         1 5IS       0.041033
     65 H29         30.6760   -18.5350   -49.9080 h1         1 5IS       0.034700
     66 H30         29.3230   -19.6340   -49.6160 h1         1 5IS       0.034700
     67 H31         29.9420   -18.6140   -48.3030 h1         1 5IS       0.034700
     68 H32         30.7370   -23.3970   -43.1450 hc         1 5IS       0.052367
     69 H33         29.4740   -24.5860   -42.8750 hc         1 5IS       0.052367
     70 H34         29.5980   -23.7790   -44.4340 hc         1 5IS       0.052367
     71 H35         26.3280   -22.3330   -44.9090 ho         1 5IS       0.510000
     72 C35         23.1630   -25.1180   -43.6520 c3         1 5IS       0.097300
     73 C37         30.2290   -19.2070   -49.1770 c3         1 5IS       0.144900
@<TRIPOS>BOND
     1     1     3 ar  
     2     1    12 ar  
     3     1    37 1   
     4     2    11 1   
     5     2    17 1   
     6     2    27 2   
     7     3     4 ar  
     8     3    28 1   
     9     4    13 ar  
    10     4    36 1   
    11     5     9 1   
    12     5    10 2   
    13     5    38 1   
    14     6     7 1   
    15     6    12 1   
    16     6    39 1   
    17     6    40 1   
    18     7     8 1   
    19     7     9 2   
    20     8    41 1   
    21     8    42 1   
    22     8    43 1   
    23     9    44 1   
    24    10    11 1   
    25    10    45 1   
    26    11    29 1   
    27    11    46 1   
    28    12    16 ar  
    29    13    16 ar  
    30    13    35 1   
    31    14    27 1   
    32    14    30 1   
    33    14    31 2   
    34    15    17 1   
    35    15    18 1   
    36    15    30 1   
    37    15    47 1   
    38    16    48 1   
    39    17    49 1   
    40    17    50 1   
    41    18    19 1   
    42    18    20 1   
    43    18    51 1   
    44    19    21 1   
    45    19    32 1   
    46    19    52 1   
    47    20    53 1   
    48    20    54 1   
    49    20    55 1   
    50    21    22 1   
    51    21    26 1   
    52    21    32 1   
    53    22    23 1   
    54    22    33 1   
    55    22    56 1   
    56    23    24 1   
    57    23    57 1   
    58    23    58 1   
    59    24    28 1   
    60    24    34 2   
    61    25    35 1   
    62    25    62 1   
    63    25    63 1   
    64    25    64 1   
    65    26    68 1   
    66    26    69 1   
    67    26    70 1   
    68    28    72 1   
    69    29    73 1   
    70    33    71 1   
    71    59    72 1   
    72    60    72 1   
    73    61    72 1   
    74    65    73 1   
    75    66    73 1   
    76    67    73 1   
@<TRIPOS>SUBSTRUCTURE
     1 5IS         1 TEMP              0 ****  ****    0 ROOT
