@<TRIPOS>MOLECULE
5IV
   61    65     1     0     0
SMALL
No Charge or Current Charge


@<TRIPOS>ATOM
      1 C1          -0.6560   -14.0130    26.8550 ca         1 5IV      -0.181600
      2 C2           0.1920   -13.8160    25.7290 ca         1 5IV      -0.045000
      3 C3           1.3290   -12.9850    25.8080 ca         1 5IV      -0.129000
      4 C4           1.6080   -12.3540    27.0280 ca         1 5IV      -0.022200
      5 C6           4.6540   -12.2570    25.9970 ca         1 5IV      -0.092300
      6 O1          -0.2960   -21.7970    30.1410 o          1 5IV      -0.534000
      7 O2          -0.9000   -23.3970    28.2490 o          1 5IV      -0.534000
      8 S           -0.7960   -22.0390    28.7860 s6         1 5IV       1.252100
      9 C22          0.1540   -20.9940    27.6020 cx         1 5IV      -0.467700
     10 C24          1.2480   -21.5880    26.7370 cx         1 5IV      -0.061400
     11 C23         -0.0530   -21.1360    26.1070 cx         1 5IV      -0.061400
     12 C21         -2.7030   -20.1070    28.5450 ca         1 5IV       0.241000
     13 C20         -3.7350   -19.7990    27.6440 ca         1 5IV      -0.097000
     14 C18         -4.1450   -18.4620    27.4110 ca         1 5IV      -0.164300
     15 C19         -5.2920   -18.1850    26.4160 c3         1 5IV       0.342300
     16 F3          -4.8570   -17.5210    25.3220 f          1 5IV      -0.111667
     17 F2          -6.2750   -17.4410    26.9730 f          1 5IV      -0.111667
     18 F1          -5.8880   -19.3120    25.9640 f          1 5IV      -0.111667
     19 C25         -2.0820   -19.0680    29.2530 ca         1 5IV      -0.078000
     20 C26         -2.4670   -17.7370    29.0360 ca         1 5IV      -0.092000
     21 C17         -3.4800   -17.4110    28.1090 ca         1 5IV      -0.048300
     22 C16         -3.8340   -15.9270    27.9200 c3         1 5IV       0.143300
     23 N1          -2.6490   -15.0640    27.8430 ns         1 5IV      -0.509900
     24 C           -1.8620   -14.9170    26.7230 c          1 5IV       0.609700
     25 O           -2.1320   -15.4910    25.6770 o          1 5IV      -0.598100
     26 C15         -0.3380   -13.3560    28.0750 ca         1 5IV      -0.031000
     27 C14          0.8000   -12.5400    28.1140 ca         1 5IV      -0.111800
     28 C13          1.3500   -11.7740    29.1930 cc         1 5IV      -0.228200
     29 C12          2.4920   -11.1450    28.7100 cd         1 5IV      -0.156100
     30 N            2.6580   -11.5050    27.3520 na         1 5IV      -0.100700
     31 C11          5.1900   -12.2750    24.6930 ca         1 5IV      -0.120000
     32 C10          6.0380   -13.3190    24.2820 ca         1 5IV      -0.082000
     33 C9           6.3590   -14.3550    25.1750 ca         1 5IV      -0.139000
     34 C8           5.8330   -14.3400    26.4750 ca         1 5IV       0.169000
     35 F            6.1430   -15.3350    27.3360 f          1 5IV      -0.180000
     36 C7           4.9870   -13.2990    26.8900 ca         1 5IV      -0.129000
     37 H1          -0.0300   -14.3100    24.7850 ha         1 5IV       0.135000
     38 H2           1.9700   -12.8440    24.9420 ha         1 5IV       0.124000
     39 H3           4.3370   -10.3310    26.8990 h1         1 5IV       0.067700
     40 H4           3.2660   -10.6680    25.5340 h1         1 5IV       0.067700
     41 H5           0.2850   -20.0040    28.0290 h1         1 5IV       0.136700
     42 H6           1.4340   -22.6600    26.7940 hc         1 5IV       0.087450
     43 H7           2.1350   -20.9870    26.5500 hc         1 5IV       0.087450
     44 H8          -0.0350   -20.2320    25.5030 hc         1 5IV       0.087450
     45 H9          -0.7330   -21.9060    25.7460 hc         1 5IV       0.087450
     46 H10         -2.8210   -22.1190    28.1660 hn         1 5IV       0.486000
     47 H11         -4.2160   -20.6190    27.1180 ha         1 5IV       0.131000
     48 H12         -1.3050   -19.2870    29.9790 ha         1 5IV       0.157000
     49 H13         -1.9670   -16.9520    29.5990 ha         1 5IV       0.128000
     50 H14         -4.4230   -15.7650    27.0100 h1         1 5IV       0.077700
     51 H15         -4.4510   -15.6000    28.7670 h1         1 5IV       0.077700
     52 H16         -2.3760   -14.5480    28.6680 hn         1 5IV       0.317500
     53 H17         -0.9410   -13.4670    28.9710 ha         1 5IV       0.113000
     54 H18          0.9620   -11.6910    30.2070 ha         1 5IV       0.209000
     55 H19          3.1870   -10.4840    29.2200 h4         1 5IV       0.215000
     56 H20          4.9480   -11.4770    23.9930 ha         1 5IV       0.117000
     57 H21          6.4450   -13.3240    23.2720 ha         1 5IV       0.122000
     58 H22          7.0130   -15.1650    24.8630 ha         1 5IV       0.137000
     59 H23          4.5940   -13.3090    27.9030 ha         1 5IV       0.141000
     60 C5           3.7330   -11.1130    26.4220 c3         1 5IV       0.126900
     61 N2          -2.3390   -21.4380    28.7370 nu         1 5IV      -0.864100
@<TRIPOS>BOND
     1     1     2 ar  
     2     1    24 1   
     3     1    26 ar  
     4     2     3 ar  
     5     2    37 1   
     6     3     4 ar  
     7     3    38 1   
     8     4    27 ar  
     9     4    30 1   
    10     5    31 ar  
    11     5    36 ar  
    12     5    60 1   
    13     6     8 2   
    14     7     8 2   
    15     8     9 1   
    16     8    61 1   
    17     9    10 1   
    18     9    11 1   
    19     9    41 1   
    20    10    11 1   
    21    10    42 1   
    22    10    43 1   
    23    11    44 1   
    24    11    45 1   
    25    12    13 ar  
    26    12    19 ar  
    27    12    61 1   
    28    13    14 ar  
    29    13    47 1   
    30    14    15 1   
    31    14    21 ar  
    32    15    16 1   
    33    15    17 1   
    34    15    18 1   
    35    19    20 ar  
    36    19    48 1   
    37    20    21 ar  
    38    20    49 1   
    39    21    22 1   
    40    22    23 1   
    41    22    50 1   
    42    22    51 1   
    43    23    24 1   
    44    23    52 1   
    45    24    25 2   
    46    26    27 ar  
    47    26    53 1   
    48    27    28 1   
    49    28    29 2   
    50    28    54 1   
    51    29    30 1   
    52    29    55 1   
    53    30    60 1   
    54    31    32 ar  
    55    31    56 1   
    56    32    33 ar  
    57    32    57 1   
    58    33    34 ar  
    59    33    58 1   
    60    34    35 1   
    61    34    36 ar  
    62    36    59 1   
    63    39    60 1   
    64    40    60 1   
    65    46    61 1   
@<TRIPOS>SUBSTRUCTURE
     1 5IV         1 TEMP              0 ****  ****    0 ROOT
