@<TRIPOS>MOLECULE
5IV
   61    65     1     0     0
SMALL
abcg2


@<TRIPOS>ATOM
      1 C1          -0.5620   -13.8380    26.7640 ca         1 5IV      -0.181600
      2 C2           0.4700   -14.0290    25.8200 ca         1 5IV      -0.045000
      3 C3           1.5580   -13.1800    25.7520 ca         1 5IV      -0.129000
      4 C4           1.5960   -12.1060    26.6430 ca         1 5IV      -0.022200
      5 C6           4.7610   -12.1140    26.3730 ca         1 5IV      -0.092300
      6 O1           0.8250   -21.1710    28.2520 o          1 5IV      -0.534000
      7 O2          -0.3340   -23.3770    28.2240 o          1 5IV      -0.534000
      8 S           -0.3370   -21.9630    27.9300 s6         1 5IV       1.252100
      9 C22         -0.7240   -21.7100    26.2350 cx         1 5IV      -0.467700
     10 C24         -0.2760   -22.7320    25.2250 cx         1 5IV      -0.061400
     11 C23         -1.7280   -22.6080    25.5700 cx         1 5IV      -0.061400
     12 C21         -2.0540   -20.0060    28.5930 ca         1 5IV       0.241000
     13 C20         -3.3630   -19.7670    28.1870 ca         1 5IV      -0.097000
     14 C18         -3.8210   -18.4650    28.0210 ca         1 5IV      -0.164300
     15 C19         -5.2510   -18.2660    27.5960 c3         1 5IV       0.342300
     16 F3          -5.3520   -17.7420    26.3470 f          1 5IV      -0.111667
     17 F2          -5.9160   -17.4160    28.4160 f          1 5IV      -0.111667
     18 F1          -5.9580   -19.4120    27.5810 f          1 5IV      -0.111667
     19 C25         -1.2060   -18.9290    28.8230 ca         1 5IV      -0.078000
     20 C26         -1.6660   -17.6360    28.6220 ca         1 5IV      -0.092000
     21 C17         -2.9710   -17.3670    28.2220 ca         1 5IV      -0.048300
     22 C16         -3.4430   -15.9300    28.0520 c3         1 5IV       0.143300
     23 N1          -2.3700   -14.9700    27.9200 ns         1 5IV      -0.509900
     24 C           -1.6800   -14.8260    26.7630 c          1 5IV       0.609700
     25 O           -1.9600   -15.4940    25.7640 o          1 5IV      -0.598100
     26 C15         -0.5180   -12.7620    27.6460 ca         1 5IV      -0.031000
     27 C14          0.5640   -11.8800    27.5950 ca         1 5IV      -0.111800
     28 C13          0.9300   -10.7020    28.3280 cc         1 5IV      -0.228200
     29 C12          2.1270   -10.2770    27.8200 cd         1 5IV      -0.156100
     30 N            2.5330   -11.1150    26.7980 na         1 5IV      -0.100700
     31 C11          5.6270   -12.5750    25.3830 ca         1 5IV      -0.120000
     32 C10          6.5640   -13.5630    25.6680 ca         1 5IV      -0.082000
     33 C9           6.6460   -14.1120    26.9440 ca         1 5IV      -0.139000
     34 C8           5.7720   -13.6400    27.9050 ca         1 5IV       0.169000
     35 F            5.8360   -14.1670    29.1560 f          1 5IV      -0.180000
     36 C7           4.8330   -12.6580    27.6540 ca         1 5IV      -0.129000
     37 H1           0.4000   -14.8720    25.1470 ha         1 5IV       0.135000
     38 H2           2.3500   -13.3490    25.0350 ha         1 5IV       0.124000
     39 H3           4.2100   -10.0410    26.2890 h1         1 5IV       0.067700
     40 H4           3.5540   -11.0170    24.9850 h1         1 5IV       0.067700
     41 H5          -0.6930   -20.6600    25.9750 h1         1 5IV       0.136700
     42 H6           0.2510   -23.6010    25.5950 hc         1 5IV       0.087450
     43 H7           0.0760   -22.3410    24.2810 hc         1 5IV       0.087450
     44 H8          -2.3980   -22.1320    24.8670 hc         1 5IV       0.087450
     45 H9          -2.1660   -23.3940    26.1700 hc         1 5IV       0.087450
     46 H10         -2.3810   -22.0230    28.7900 hn         1 5IV       0.486000
     47 H11         -4.0230   -20.6020    28.0010 ha         1 5IV       0.131000
     48 H12         -0.1930   -19.1010    29.1540 ha         1 5IV       0.157000
     49 H13         -0.9870   -16.8110    28.7910 ha         1 5IV       0.128000
     50 H14         -4.0840   -15.8500    27.1760 h1         1 5IV       0.077700
     51 H15         -4.0380   -15.6390    28.9180 h1         1 5IV       0.077700
     52 H16         -2.0370   -14.5140    28.7530 hn         1 5IV       0.317500
     53 H17         -1.3170   -12.5820    28.3540 ha         1 5IV       0.113000
     54 H18          0.3780   -10.2360    29.1280 ha         1 5IV       0.209000
     55 H19          2.7410    -9.4350    28.0960 h4         1 5IV       0.215000
     56 H20          5.5620   -12.1640    24.3840 ha         1 5IV       0.117000
     57 H21          7.2290   -13.9160    24.8910 ha         1 5IV       0.122000
     58 H22          7.3610   -14.8860    27.1880 ha         1 5IV       0.137000
     59 H23          4.1690   -12.3330    28.4440 ha         1 5IV       0.141000
     60 C5           3.7730   -11.0120    26.0550 c3         1 5IV       0.126900
     61 N2          -1.6220   -21.3480    28.7910 nu         1 5IV      -0.864100
@<TRIPOS>BOND
     1     1     2 ar  
     2     1    24 1   
     3     1    26 ar  
     4     2     3 ar  
     5     2    37 1   
     6     3     4 ar  
     7     3    38 1   
     8     4    27 ar  
     9     4    30 1   
    10     5    31 ar  
    11     5    36 ar  
    12     5    60 1   
    13     6     8 2   
    14     7     8 2   
    15     8     9 1   
    16     8    61 1   
    17     9    10 1   
    18     9    11 1   
    19     9    41 1   
    20    10    11 1   
    21    10    42 1   
    22    10    43 1   
    23    11    44 1   
    24    11    45 1   
    25    12    13 ar  
    26    12    19 ar  
    27    12    61 1   
    28    13    14 ar  
    29    13    47 1   
    30    14    15 1   
    31    14    21 ar  
    32    15    16 1   
    33    15    17 1   
    34    15    18 1   
    35    19    20 ar  
    36    19    48 1   
    37    20    21 ar  
    38    20    49 1   
    39    21    22 1   
    40    22    23 1   
    41    22    50 1   
    42    22    51 1   
    43    23    24 1   
    44    23    52 1   
    45    24    25 2   
    46    26    27 ar  
    47    26    53 1   
    48    27    28 1   
    49    28    29 2   
    50    28    54 1   
    51    29    30 1   
    52    29    55 1   
    53    30    60 1   
    54    31    32 ar  
    55    31    56 1   
    56    32    33 ar  
    57    32    57 1   
    58    33    34 ar  
    59    33    58 1   
    60    34    35 1   
    61    34    36 ar  
    62    36    59 1   
    63    39    60 1   
    64    40    60 1   
    65    46    61 1   
@<TRIPOS>SUBSTRUCTURE
     1 5IV         1 TEMP              0 ****  ****    0 ROOT
