@<TRIPOS>MOLECULE
5IW
   81    83     1     0     0
SMALL
No Charge or Current Charge


@<TRIPOS>ATOM
      1 C30         15.2220    -8.1070   -20.2090 c          1 5IW       0.600300
      2 O39         14.4300    -7.5040   -19.5040 o          1 5IW      -0.579100
      3 C31         14.7920    -9.2120   -21.1090 ce         1 5IW      -0.269200
      4 C32         15.5830    -9.9710   -21.9310 cf         1 5IW      -0.115200
      5 C33         15.1970   -11.0750   -22.8350 ca         1 5IW      -0.071800
      6 C38         16.1950   -11.7360   -23.5820 ca         1 5IW      -0.089000
      7 C37         15.8610   -12.7890   -24.4510 ca         1 5IW      -0.113500
      8 C36         14.5240   -13.1940   -24.5840 ca         1 5IW      -0.096000
      9 C35         13.5220   -12.5440   -23.8460 ca         1 5IW      -0.113500
     10 C34         13.8550   -11.4900   -22.9770 ca         1 5IW      -0.089000
     11 N29         16.5630    -7.8000   -20.2250 ns         1 5IW      -0.520900
     12 C21         17.2100    -6.8260   -19.3080 c3         1 5IW       0.039700
     13 C20         17.1700    -5.3700   -19.8580 c          1 5IW       0.593100
     14 O40         17.5090    -4.4070   -19.1820 o          1 5IW      -0.606100
     15 C22         18.6580    -7.2670   -18.9840 c3         1 5IW      -0.043100
     16 C23         18.7490    -8.7200   -18.5270 ca         1 5IW      -0.087300
     17 C24         19.3600    -9.6900   -19.3460 ca         1 5IW      -0.108500
     18 C28         18.2080    -9.1060   -17.2850 ca         1 5IW      -0.108500
     19 C25         19.4280   -11.0300   -18.9290 ca         1 5IW      -0.106500
     20 C27         18.2770   -10.4470   -16.8670 ca         1 5IW      -0.106500
     21 C26         18.8860   -11.4090   -17.6890 ca         1 5IW      -0.106000
     22 N19         16.7100    -5.2270   -21.1510 ns         1 5IW      -0.478900
     23 C14         16.5740    -3.9540   -21.8920 c3         1 5IW       0.038700
     24 C13         15.2460    -3.9670   -22.7010 c          1 5IW       0.587100
     25 O41         14.6390    -4.9960   -22.9710 o          1 5IW      -0.599100
     26 C15         17.7900    -3.7270   -22.8350 c3         1 5IW      -0.086400
     27 C16         19.1620    -3.4940   -22.1410 c3         1 5IW      -0.057700
     28 C17         19.1990    -2.1800   -21.3240 c3         1 5IW      -0.091100
     29 C18         20.3130    -3.5230   -23.1710 c3         1 5IW      -0.091100
     30 C07         10.2990    -5.0610   -21.6210 c6         1 5IW      -0.091400
     31 C03         13.5340    -2.4620   -23.8410 c3         1 5IW      -0.018300
     32 C06         11.2030    -4.2750   -22.5880 c6         1 5IW      -0.073400
     33 C10         10.9760    -2.3840   -20.8020 c          1 5IW       0.569000
     34 C04         12.3910    -2.0020   -22.8930 c3         1 5IW      -0.072400
     35 C02         13.7730    -1.4270   -24.9710 c          1 5IW       0.561900
     36 C05         11.8760    -3.0690   -21.8680 c6         1 5IW      -0.141700
     37 C08          9.1790    -4.1460   -21.0880 c6         1 5IW       0.113000
     38 N12         14.7910    -2.7240   -23.0960 ns         1 5IW      -0.482900
     39 N09          9.6910    -2.8460   -20.6330 ns         1 5IW      -0.507900
     40 H30         13.7230    -9.4010   -21.0710 ha         1 5IW       0.207000
     41 H32         16.6540    -9.7650   -21.9450 ha         1 5IW       0.171000
     42 H38         17.2370   -11.4350   -23.4900 ha         1 5IW       0.114500
     43 H37         16.6400   -13.2910   -25.0200 ha         1 5IW       0.116000
     44 H36         14.2650   -14.0100   -25.2560 ha         1 5IW       0.115000
     45 H35         12.4840   -12.8560   -23.9480 ha         1 5IW       0.116000
     46 H34         13.0590   -11.0050   -22.4200 ha         1 5IW       0.114500
     47 H40         17.1560    -8.3790   -20.8040 hn         1 5IW       0.321500
     48 H7          16.6410    -6.8110   -18.3690 h1         1 5IW       0.096700
     49 H8          19.2830    -7.1080   -19.8720 hc         1 5IW       0.065200
     50 H9          19.0660    -6.6080   -18.2080 hc         1 5IW       0.065200
     51 H10         19.7820    -9.4080   -20.3090 ha         1 5IW       0.112000
     52 H12         17.7330    -8.3680   -16.6420 ha         1 5IW       0.112000
     53 H28         19.9000   -11.7750   -19.5660 ha         1 5IW       0.115000
     54 H29         17.8570   -10.7390   -15.9070 ha         1 5IW       0.115000
     55 H11         18.9380   -12.4470   -17.3660 ha         1 5IW       0.116000
     56 H39         16.3970    -6.0790   -21.6040 hn         1 5IW       0.326500
     57 H23         16.4960    -3.1250   -21.1780 h1         1 5IW       0.078700
     58 H2          17.5840    -2.8660   -23.4840 hc         1 5IW       0.061700
     59 H3          17.8700    -4.5940   -23.5030 hc         1 5IW       0.061700
     60 H24         19.3400    -4.3240   -21.4460 hc         1 5IW       0.040700
     61 H4          18.4480    -2.1810   -20.5270 hc         1 5IW       0.035867
     62 H5          20.1800    -2.0480   -20.8520 hc         1 5IW       0.035867
     63 H6          19.0120    -1.3140   -21.9700 hc         1 5IW       0.035867
     64 H25         21.2830    -3.4030   -22.6730 hc         1 5IW       0.035867
     65 H26         20.3290    -4.4790   -23.7100 hc         1 5IW       0.035867
     66 H27         20.2020    -2.7160   -23.9050 hc         1 5IW       0.035867
     67 H20          9.8610    -5.9320   -22.1260 hc         1 5IW       0.064700
     68 H21         10.8970    -5.4470   -20.7840 hc         1 5IW       0.064700
     69 H14         13.2190    -3.3800   -24.3550 h1         1 5IW       0.103700
     70 H18         11.9630    -4.9430   -23.0140 hc         1 5IW       0.055700
     71 H19         10.5940    -3.9210   -23.4330 hc         1 5IW       0.055700
     72 H15         12.7470    -1.1120   -22.3580 hc         1 5IW       0.061700
     73 H16         11.5450    -1.6580   -23.5020 hc         1 5IW       0.061700
     74 H13         12.9260    -1.2970   -25.6800 h4         1 5IW      -0.008800
     75 H17         12.7560    -3.4130   -21.3100 hc         1 5IW       0.092700
     76 H22          8.4450    -3.9610   -21.8850 h1         1 5IW       0.035200
     77 H41          8.6550    -4.6380   -20.2550 h1         1 5IW       0.035200
     78 H1          15.3760    -1.9300   -22.8540 hn         1 5IW       0.325500
     79 H31          9.1350    -2.3340   -19.9590 hn         1 5IW       0.310500
     80 O01         14.8090    -0.7810   -25.1050 o          1 5IW      -0.506100
     81 O11         11.3810    -1.4630   -20.1100 o          1 5IW      -0.588000
@<TRIPOS>BOND
     1     1     2 2   
     2     1     3 1   
     3     1    11 1   
     4     3     4 2   
     5     3    40 1   
     6     4     5 1   
     7     4    41 1   
     8     5     6 ar  
     9     5    10 ar  
    10     6     7 ar  
    11     6    42 1   
    12     7     8 ar  
    13     7    43 1   
    14     8     9 ar  
    15     8    44 1   
    16     9    10 ar  
    17     9    45 1   
    18    10    46 1   
    19    11    12 1   
    20    11    47 1   
    21    12    13 1   
    22    12    15 1   
    23    12    48 1   
    24    13    14 2   
    25    13    22 1   
    26    15    16 1   
    27    15    49 1   
    28    15    50 1   
    29    16    17 ar  
    30    16    18 ar  
    31    17    19 ar  
    32    17    51 1   
    33    18    20 ar  
    34    18    52 1   
    35    19    21 ar  
    36    19    53 1   
    37    20    21 ar  
    38    20    54 1   
    39    21    55 1   
    40    22    23 1   
    41    22    56 1   
    42    23    24 1   
    43    23    26 1   
    44    23    57 1   
    45    24    25 2   
    46    24    38 1   
    47    26    27 1   
    48    26    58 1   
    49    26    59 1   
    50    27    28 1   
    51    27    29 1   
    52    27    60 1   
    53    28    61 1   
    54    28    62 1   
    55    28    63 1   
    56    29    64 1   
    57    29    65 1   
    58    29    66 1   
    59    30    32 1   
    60    30    37 1   
    61    30    67 1   
    62    30    68 1   
    63    31    34 1   
    64    31    35 1   
    65    31    38 1   
    66    31    69 1   
    67    32    36 1   
    68    32    70 1   
    69    32    71 1   
    70    33    36 1   
    71    33    39 1   
    72    33    81 2   
    73    34    36 1   
    74    34    72 1   
    75    34    73 1   
    76    35    74 1   
    77    35    80 2   
    78    36    75 1   
    79    37    39 1   
    80    37    76 1   
    81    37    77 1   
    82    38    78 1   
    83    39    79 1   
@<TRIPOS>SUBSTRUCTURE
     1 5IW         1 TEMP              0 ****  ****    0 ROOT
