@<TRIPOS>MOLECULE
5IW
   81    83     1     0     0
SMALL
bcc


@<TRIPOS>ATOM
      1 C30         15.0180    -8.1010   -21.7020 c          1 5IW       0.667300
      2 O39         13.9880    -7.4490   -21.6020 o          1 5IW      -0.579100
      3 C31         15.0800    -9.3170   -22.5440 ce         1 5IW      -0.219200
      4 C32         15.8520   -10.3730   -22.2670 cf         1 5IW      -0.065200
      5 C33         15.9200   -11.6310   -23.0090 ca         1 5IW      -0.071800
      6 C38         16.7710   -12.6330   -22.5350 ca         1 5IW      -0.107000
      7 C37         16.8840   -13.8450   -23.1990 ca         1 5IW      -0.131500
      8 C36         16.1440   -14.0770   -24.3490 ca         1 5IW      -0.114000
      9 C35         15.2930   -13.0890   -24.8310 ca         1 5IW      -0.131500
     10 C34         15.1810   -11.8780   -24.1700 ca         1 5IW      -0.107000
     11 N29         16.1470    -7.7570   -21.0430 ns         1 5IW      -0.587900
     12 C21         16.1470    -6.7300   -20.0330 c3         1 5IW       0.039700
     13 C20         16.0270    -5.3210   -20.6110 c          1 5IW       0.660100
     14 O40         15.4530    -4.4370   -19.9930 o          1 5IW      -0.606100
     15 C22         17.4220    -6.8370   -19.1830 c3         1 5IW      -0.043100
     16 C23         17.5240    -8.1790   -18.5110 ca         1 5IW      -0.087300
     17 C24         18.4240    -9.1390   -18.9640 ca         1 5IW      -0.126500
     18 C28         16.6840    -8.5010   -17.4460 ca         1 5IW      -0.126500
     19 C25         18.4790   -10.3980   -18.3760 ca         1 5IW      -0.124500
     20 C27         16.7370    -9.7550   -16.8550 ca         1 5IW      -0.124500
     21 C26         17.6340   -10.7100   -17.3210 ca         1 5IW      -0.124000
     22 N19         16.6430    -5.1180   -21.7850 ns         1 5IW      -0.545900
     23 C14         16.5640    -3.8590   -22.4840 c3         1 5IW       0.038700
     24 C13         15.1740    -3.7150   -23.1040 c          1 5IW       0.654100
     25 O41         14.6730    -4.6300   -23.7360 o          1 5IW      -0.599100
     26 C15         17.6250    -3.7950   -23.5810 c3         1 5IW      -0.086400
     27 C16         19.0690    -3.9100   -23.0850 c3         1 5IW      -0.057700
     28 C17         19.4280    -2.8130   -22.0880 c3         1 5IW      -0.091100
     29 C18         20.0170    -3.8830   -24.2790 c3         1 5IW      -0.091100
     30 C07         11.5510    -4.9120   -20.2080 c6         1 5IW      -0.091400
     31 C03         13.2540    -2.2120   -23.3630 c3         1 5IW      -0.018300
     32 C06         11.7700    -4.0650   -21.4490 c6         1 5IW      -0.073400
     33 C10         11.4320    -2.0500   -19.9370 c          1 5IW       0.711500
     34 C04         12.3490    -1.7040   -22.2320 c3         1 5IW      -0.072400
     35 C02         13.2660    -1.1960   -24.4810 c          1 5IW       0.561900
     36 C05         12.2580    -2.6750   -21.0540 c6         1 5IW      -0.141700
     37 C08         10.4620    -4.2960   -19.3560 c6         1 5IW       0.113000
     38 N12         14.5760    -2.5290   -22.9010 ns         1 5IW      -0.549900
     39 N09         10.6840    -2.8720   -19.1810 ns         1 5IW      -0.574900
     40 H30         14.3800    -9.3280   -23.3710 ha         1 5IW       0.157000
     41 H32         16.4950   -10.3410   -21.3920 ha         1 5IW       0.121000
     42 H38         17.3510   -12.4570   -21.6370 ha         1 5IW       0.132500
     43 H37         17.5500   -14.6080   -22.8160 ha         1 5IW       0.134000
     44 H36         16.2280   -15.0220   -24.8700 ha         1 5IW       0.133000
     45 H35         14.7140   -13.2640   -25.7290 ha         1 5IW       0.134000
     46 H34         14.5130   -11.1240   -24.5670 ha         1 5IW       0.132500
     47 H40         16.9970    -8.2710   -21.2130 hn         1 5IW       0.321500
     48 H7          15.2810    -6.8640   -19.3800 h1         1 5IW       0.096700
     49 H8          18.2970    -6.6630   -19.8160 hc         1 5IW       0.065200
     50 H9          17.4000    -6.0380   -18.4390 hc         1 5IW       0.065200
     51 H10         19.0920    -8.9030   -19.7840 ha         1 5IW       0.130000
     52 H12         15.9800    -7.7630   -17.0760 ha         1 5IW       0.130000
     53 H28         19.1840   -11.1320   -18.7440 ha         1 5IW       0.133000
     54 H29         16.0780    -9.9880   -16.0290 ha         1 5IW       0.133000
     55 H11         17.6730   -11.6880   -16.8610 ha         1 5IW       0.134000
     56 H39         17.0070    -5.9160   -22.2830 hn         1 5IW       0.326500
     57 H23         16.7350    -3.0530   -21.7670 h1         1 5IW       0.078700
     58 H2          17.5060    -2.8470   -24.1140 hc         1 5IW       0.061700
     59 H3          17.4270    -4.5880   -24.3100 hc         1 5IW       0.061700
     60 H24         19.1900    -4.8780   -22.5860 hc         1 5IW       0.040700
     61 H4          18.8330    -2.8680   -21.1760 hc         1 5IW       0.035867
     62 H5          20.4760    -2.8870   -21.7940 hc         1 5IW       0.035867
     63 H6          19.2760    -1.8230   -22.5250 hc         1 5IW       0.035867
     64 H25         21.0530    -4.0030   -23.9590 hc         1 5IW       0.035867
     65 H26         19.7930    -4.6840   -24.9870 hc         1 5IW       0.035867
     66 H27         19.9440    -2.9350   -24.8170 hc         1 5IW       0.035867
     67 H20         11.2640    -5.9300   -20.4740 hc         1 5IW       0.064700
     68 H21         12.4830    -4.9770   -19.6410 hc         1 5IW       0.064700
     69 H14         12.8150    -3.1180   -23.7950 h1         1 5IW       0.103700
     70 H18         12.4990    -4.5480   -22.1000 hc         1 5IW       0.055700
     71 H19         10.8380    -3.9910   -22.0210 hc         1 5IW       0.055700
     72 H15         12.7210    -0.7390   -21.8820 hc         1 5IW       0.061700
     73 H16         11.3520    -1.5270   -22.6460 hc         1 5IW       0.061700
     74 H13         12.2580    -0.9120   -24.8330 h4         1 5IW      -0.008800
     75 H17         13.2640    -2.7900   -20.6290 hc         1 5IW       0.092700
     76 H22          9.4870    -4.4650   -19.8230 h1         1 5IW       0.035200
     77 H41         10.4290    -4.7610   -18.3700 h1         1 5IW       0.035200
     78 H1          15.0560    -1.8310   -22.3530 hn         1 5IW       0.325500
     79 H31         10.1480    -2.4180   -18.4550 hn         1 5IW       0.310500
     80 O01         14.2580    -0.7250   -24.9700 o          1 5IW      -0.506100
     81 O11         11.4790    -0.8470   -19.7090 o          1 5IW      -0.663500
@<TRIPOS>BOND
     1     1     2 2   
     2     1     3 1   
     3     1    11 1   
     4     3     4 2   
     5     3    40 1   
     6     4     5 1   
     7     4    41 1   
     8     5     6 ar  
     9     5    10 ar  
    10     6     7 ar  
    11     6    42 1   
    12     7     8 ar  
    13     7    43 1   
    14     8     9 ar  
    15     8    44 1   
    16     9    10 ar  
    17     9    45 1   
    18    10    46 1   
    19    11    12 1   
    20    11    47 1   
    21    12    13 1   
    22    12    15 1   
    23    12    48 1   
    24    13    14 2   
    25    13    22 1   
    26    15    16 1   
    27    15    49 1   
    28    15    50 1   
    29    16    17 ar  
    30    16    18 ar  
    31    17    19 ar  
    32    17    51 1   
    33    18    20 ar  
    34    18    52 1   
    35    19    21 ar  
    36    19    53 1   
    37    20    21 ar  
    38    20    54 1   
    39    21    55 1   
    40    22    23 1   
    41    22    56 1   
    42    23    24 1   
    43    23    26 1   
    44    23    57 1   
    45    24    25 2   
    46    24    38 1   
    47    26    27 1   
    48    26    58 1   
    49    26    59 1   
    50    27    28 1   
    51    27    29 1   
    52    27    60 1   
    53    28    61 1   
    54    28    62 1   
    55    28    63 1   
    56    29    64 1   
    57    29    65 1   
    58    29    66 1   
    59    30    32 1   
    60    30    37 1   
    61    30    67 1   
    62    30    68 1   
    63    31    34 1   
    64    31    35 1   
    65    31    38 1   
    66    31    69 1   
    67    32    36 1   
    68    32    70 1   
    69    32    71 1   
    70    33    36 1   
    71    33    39 1   
    72    33    81 2   
    73    34    36 1   
    74    34    72 1   
    75    34    73 1   
    76    35    74 1   
    77    35    80 2   
    78    36    75 1   
    79    37    39 1   
    80    37    76 1   
    81    37    77 1   
    82    38    78 1   
    83    39    79 1   
@<TRIPOS>SUBSTRUCTURE
     1 5IW         1 TEMP              0 ****  ****    0 ROOT
