@<TRIPOS>MOLECULE
5IX
   91    95     1     0     0
SMALL
abcg2


@<TRIPOS>ATOM
      1 C4          26.0400   -25.6600   -45.9830 ca         1 5IX      -0.132000
      2 C14         31.1390   -20.5260   -46.2820 c6         1 5IX       0.330400
      3 C5          25.2700   -25.8450   -44.8430 ca         1 5IX      -0.011000
      4 C6          25.2140   -27.1000   -44.2400 ca         1 5IX       0.070000
      5 C11         30.2360   -23.6260   -47.5150 ce         1 5IX      -0.155000
      6 C7          27.6430   -26.4750   -47.7340 c3         1 5IX       0.000100
      7 C8          28.9100   -25.7360   -47.3670 c2         1 5IX      -0.086400
      8 C9          29.8680   -26.5000   -46.5030 c3         1 5IX      -0.060900
      9 C10         29.0940   -24.4730   -47.7900 ce         1 5IX      -0.193000
     10 C12         30.2990   -22.3290   -47.8430 c2         1 5IX      -0.242200
     11 C13         31.4630   -21.4680   -47.4740 c3         1 5IX       0.215500
     12 C3          26.7610   -26.7150   -46.5290 ca         1 5IX      -0.034300
     13 C1          25.9270   -28.1790   -44.7820 ca         1 5IX       0.155100
     14 C17         32.9630   -19.5240   -44.8680 c          1 5IX       0.710100
     15 C19         31.0220   -20.4810   -43.7890 c6         1 5IX       0.189300
     16 C2          26.6960   -27.9690   -45.9270 ca         1 5IX      -0.188000
     17 C20         30.8460   -21.3340   -45.0250 c6         1 5IX      -0.152400
     18 C22         30.7630   -21.2300   -42.4800 c3         1 5IX      -0.045700
     19 C23         29.3000   -21.6010   -42.4230 cx         1 5IX       0.094300
     20 C24         31.1130   -20.3860   -41.2520 c3         1 5IX      -0.082100
     21 C25         28.7040   -22.8780   -42.8470 cx         1 5IX       0.078000
     22 C26         27.2420   -22.8130   -43.2580 c3         1 5IX       0.191300
     23 C27         26.4540   -24.0760   -42.9480 c3         1 5IX      -0.153400
     24 C28         25.0090   -23.8980   -43.3780 c          1 5IX       0.616100
     25 C36         26.5460   -30.4840   -44.6630 c3         1 5IX       0.147900
     26 C37         31.1640   -20.1670   -49.5320 c3         1 5IX       0.144900
     27 C38         29.5000   -24.0330   -43.3940 c3         1 5IX      -0.077100
     28 C40         26.8520   -21.3830   -46.6820 c3         1 5IX      -0.087100
     29 C42         25.4350   -20.9800   -47.0230 ca         1 5IX      -0.092300
     30 C43         25.1350   -19.6700   -47.3940 ca         1 5IX      -0.093000
     31 C44         23.8230   -19.2970   -47.6690 ca         1 5IX      -0.108500
     32 C45         22.7960   -20.2300   -47.5720 ca         1 5IX      -0.099000
     33 C46         23.0880   -21.5400   -47.2020 ca         1 5IX      -0.108500
     34 C47         24.3990   -21.9100   -46.9300 ca         1 5IX      -0.093000
     35 N16         32.2950   -19.6860   -46.0350 ns         1 5IX      -0.565900
     36 N31         24.5180   -24.7550   -44.3090 n          1 5IX      -0.243400
     37 O15         32.0410   -20.7270   -48.5530 os         1 5IX      -0.463000
     38 O18         32.3920   -20.0030   -43.7460 os         1 5IX      -0.441100
     39 O21         34.0450   -18.9660   -44.7870 o          1 5IX      -0.541000
     40 O29         28.8940   -22.5810   -41.4480 op         1 5IX      -0.430000
     41 O30         27.1710   -22.6270   -44.6980 os         1 5IX      -0.461100
     42 O32         24.3320   -22.9870   -42.9030 o          1 5IX      -0.592100
     43 O34         25.8250   -29.3640   -44.1420 os         1 5IX      -0.330100
     44 O41         27.0470   -20.3840   -44.4970 o          1 5IX      -0.479000
     45 O48         30.0240   -19.7300   -46.6690 oh         1 5IX      -0.730000
     46 CL33        24.2850   -27.3320   -42.7880 cl         1 5IX      -0.166000
     47 H1          26.0900   -24.6740   -46.4240 ha         1 5IX       0.134000
     48 H2          31.0810   -24.0650   -46.9970 ha         1 5IX       0.171000
     49 H3          27.0900   -25.9000   -48.4780 hc         1 5IX       0.060200
     50 H4          27.9030   -27.4380   -48.1820 hc         1 5IX       0.060200
     51 H5          30.1400   -27.4440   -46.9860 hc         1 5IX       0.045700
     52 H6          30.7790   -25.9500   -46.2820 hc         1 5IX       0.045700
     53 H7          29.3930   -26.7620   -45.5530 hc         1 5IX       0.045700
     54 H8          28.3090   -24.0230   -48.3920 ha         1 5IX       0.172000
     55 H9          29.4550   -21.8570   -48.3320 ha         1 5IX       0.187000
     56 H10         32.2740   -22.1060   -47.1210 h1         1 5IX       0.077700
     57 H11         30.3750   -19.5970   -43.8260 h1         1 5IX       0.059700
     58 H12         27.2570   -28.7870   -46.3550 ha         1 5IX       0.123000
     59 H13         29.8330   -21.7130   -45.0960 hc         1 5IX       0.078200
     60 H14         31.5230   -22.1880   -44.9610 hc         1 5IX       0.078200
     61 H15         31.3750   -22.1340   -42.4780 hc         1 5IX       0.070700
     62 H16         28.6400   -20.7370   -42.4520 h1         1 5IX       0.103700
     63 H17         30.8720   -20.9350   -40.3410 hc         1 5IX       0.050033
     64 H18         32.1740   -20.1400   -41.2340 hc         1 5IX       0.050033
     65 H19         30.5440   -19.4530   -41.2500 hc         1 5IX       0.050033
     66 H20         26.7750   -21.9570   -42.7770 h1         1 5IX       0.101700
     67 H21         26.9190   -24.9400   -43.4110 hc         1 5IX       0.084700
     68 H22         26.4590   -24.2240   -41.8660 hc         1 5IX       0.084700
     69 H23         22.7740   -23.6370   -44.5320 h1         1 5IX       0.051367
     70 H24         23.0910   -24.8060   -45.8340 h1         1 5IX       0.051367
     71 H25         22.4970   -25.3710   -44.2570 h1         1 5IX       0.051367
     72 H26         26.3150   -31.3130   -44.0000 h1         1 5IX       0.047367
     73 H27         26.2190   -30.7200   -45.6780 h1         1 5IX       0.047367
     74 H28         27.6200   -30.2930   -44.6560 h1         1 5IX       0.047367
     75 H29         31.7910   -19.5520   -50.1750 h1         1 5IX       0.040033
     76 H30         30.6940   -20.9480   -50.1360 h1         1 5IX       0.040033
     77 H31         30.3920   -19.5460   -49.0770 h1         1 5IX       0.040033
     78 H32         30.5600   -23.9250   -43.1800 hc         1 5IX       0.052367
     79 H33         29.1570   -24.9670   -42.9480 hc         1 5IX       0.052367
     80 H34         29.3680   -24.1050   -44.4730 hc         1 5IX       0.052367
     81 H35         27.0790   -22.3710   -47.0740 hc         1 5IX       0.079700
     82 H36         27.5630   -20.6670   -47.0930 hc         1 5IX       0.079700
     83 H37         25.9330   -18.9420   -47.4690 ha         1 5IX       0.115000
     84 H38         23.6040   -18.2770   -47.9600 ha         1 5IX       0.114500
     85 H39         21.7750   -19.9400   -47.7860 ha         1 5IX       0.115000
     86 H40         22.2960   -22.2740   -47.1240 ha         1 5IX       0.114500
     87 H41         24.6230   -22.9290   -46.6410 ha         1 5IX       0.115000
     88 H42         32.7710   -19.3410   -46.8570 hn         1 5IX       0.347500
     89 H43         29.8480   -19.0750   -45.9800 ho         1 5IX       0.520000
     90 C35         23.1310   -24.6370   -44.7590 c3         1 5IX       0.089300
     91 C39         27.0410   -21.3800   -45.1820 c          1 5IX       0.597100
@<TRIPOS>BOND
     1     1     3 ar  
     2     1    12 ar  
     3     1    47 1   
     4     2    11 1   
     5     2    17 1   
     6     2    35 1   
     7     2    45 1   
     8     3     4 ar  
     9     3    36 1   
    10     4    13 ar  
    11     4    46 1   
    12     5     9 1   
    13     5    10 2   
    14     5    48 1   
    15     6     7 1   
    16     6    12 1   
    17     6    49 1   
    18     6    50 1   
    19     7     8 1   
    20     7     9 2   
    21     8    51 1   
    22     8    52 1   
    23     8    53 1   
    24     9    54 1   
    25    10    11 1   
    26    10    55 1   
    27    11    37 1   
    28    11    56 1   
    29    12    16 ar  
    30    13    16 ar  
    31    13    43 1   
    32    14    35 1   
    33    14    38 1   
    34    14    39 2   
    35    15    17 1   
    36    15    18 1   
    37    15    38 1   
    38    15    57 1   
    39    16    58 1   
    40    17    59 1   
    41    17    60 1   
    42    18    19 1   
    43    18    20 1   
    44    18    61 1   
    45    19    21 1   
    46    19    40 1   
    47    19    62 1   
    48    20    63 1   
    49    20    64 1   
    50    20    65 1   
    51    21    22 1   
    52    21    27 1   
    53    21    40 1   
    54    22    23 1   
    55    22    41 1   
    56    22    66 1   
    57    23    24 1   
    58    23    67 1   
    59    23    68 1   
    60    24    36 1   
    61    24    42 2   
    62    25    43 1   
    63    25    72 1   
    64    25    73 1   
    65    25    74 1   
    66    26    37 1   
    67    26    75 1   
    68    26    76 1   
    69    26    77 1   
    70    27    78 1   
    71    27    79 1   
    72    27    80 1   
    73    28    29 1   
    74    28    81 1   
    75    28    82 1   
    76    28    91 1   
    77    29    30 ar  
    78    29    34 ar  
    79    30    31 ar  
    80    30    83 1   
    81    31    32 ar  
    82    31    84 1   
    83    32    33 ar  
    84    32    85 1   
    85    33    34 ar  
    86    33    86 1   
    87    34    87 1   
    88    35    88 1   
    89    36    90 1   
    90    41    91 1   
    91    44    91 2   
    92    45    89 1   
    93    69    90 1   
    94    70    90 1   
    95    71    90 1   
@<TRIPOS>SUBSTRUCTURE
     1 5IX         1 TEMP              0 ****  ****    0 ROOT
