@<TRIPOS>MOLECULE
5IX
   91    95     1     0     0
SMALL
No Charge or Current Charge


@<TRIPOS>ATOM
      1 C4          25.9450   -25.7360   -45.9340 ca         1 5IX      -0.132000
      2 C14         31.2320   -20.4520   -46.3280 c6         1 5IX       0.330400
      3 C5          25.1150   -25.9880   -44.8290 ca         1 5IX      -0.011000
      4 C6          25.0730   -27.2860   -44.2730 ca         1 5IX       0.070000
      5 C11         30.2290   -23.6600   -47.4880 ce         1 5IX      -0.155000
      6 C7          27.5400   -26.4880   -47.7580 c3         1 5IX       0.000100
      7 C8          28.8130   -25.7370   -47.3970 c2         1 5IX      -0.086400
      8 C9          29.7180   -26.5410   -46.4710 c3         1 5IX      -0.060900
      9 C10         29.0600   -24.4780   -47.8350 ce         1 5IX      -0.193000
     10 C12         30.3850   -22.3820   -47.8980 c2         1 5IX      -0.242200
     11 C13         31.5450   -21.4770   -47.5070 c3         1 5IX       0.215500
     12 C3          26.6670   -26.7770   -46.5420 ca         1 5IX      -0.034300
     13 C1          25.8010   -28.3380   -44.8700 ca         1 5IX       0.155100
     14 C17         32.9980   -19.3480   -44.8940 c          1 5IX       0.710100
     15 C19         31.0040   -20.3280   -43.8230 c6         1 5IX       0.189300
     16 C2          26.5900   -28.0780   -46.0120 ca         1 5IX      -0.188000
     17 C20         30.8570   -21.2250   -45.0540 c6         1 5IX      -0.152400
     18 C22         30.7070   -21.0470   -42.4620 c3         1 5IX      -0.045700
     19 C23         29.2490   -21.5160   -42.3380 cx         1 5IX       0.094300
     20 C24         31.0420   -20.1490   -41.2420 c3         1 5IX      -0.082100
     21 C25         28.6980   -22.8470   -42.8120 cx         1 5IX       0.078000
     22 C26         27.2000   -22.9080   -43.1900 c3         1 5IX       0.191300
     23 C27         26.5020   -24.2380   -42.8390 c3         1 5IX      -0.153400
     24 C28         25.0010   -24.1330   -43.1340 c          1 5IX       0.616100
     25 C36         26.4410   -30.7290   -44.8370 c3         1 5IX       0.147900
     26 C37         31.3520   -19.8620   -49.4110 c3         1 5IX       0.144900
     27 C38         29.5680   -23.9260   -43.4710 c3         1 5IX      -0.077100
     28 C40         26.9050   -21.4790   -46.6560 c3         1 5IX      -0.087100
     29 C42         25.5000   -21.0310   -47.0430 ca         1 5IX      -0.092300
     30 C43         25.2830   -19.7530   -47.5940 ca         1 5IX      -0.093000
     31 C44         23.9840   -19.3420   -47.9420 ca         1 5IX      -0.108500
     32 C45         22.8940   -20.2070   -47.7410 ca         1 5IX      -0.099000
     33 C46         23.1050   -21.4820   -47.1900 ca         1 5IX      -0.108500
     34 C47         24.4030   -21.8920   -46.8430 ca         1 5IX      -0.093000
     35 N16         32.3560   -19.5740   -46.0870 ns         1 5IX      -0.565900
     36 N31         24.4400   -24.8960   -44.1890 n          1 5IX      -0.243400
     37 O15         32.1170   -20.8620   -48.7000 os         1 5IX      -0.463000
     38 O18         32.3570   -19.8380   -43.7850 os         1 5IX      -0.441100
     39 O21         34.0600   -18.7580   -44.8390 o          1 5IX      -0.541000
     40 O29         28.9970   -22.6020   -41.4160 op         1 5IX      -0.430000
     41 O30         27.0580   -22.7340   -44.6140 os         1 5IX      -0.461100
     42 O32         24.3020   -23.3900   -42.4520 o          1 5IX      -0.592100
     43 O34         25.7250   -29.6000   -44.3050 os         1 5IX      -0.330100
     44 O41         27.2080   -20.4440   -44.4780 o          1 5IX      -0.479000
     45 O48         30.1530   -19.5950   -46.6550 oh         1 5IX      -0.730000
     46 Cl33        24.1110   -27.5960   -42.8200 cl         1 5IX      -0.166000
     47 H1          26.0250   -24.7270   -46.3310 ha         1 5IX       0.134000
     48 H2          30.9860   -24.1090   -46.8450 ha         1 5IX       0.171000
     49 H3          26.9560   -25.9140   -48.4870 hc         1 5IX       0.060200
     50 H4          27.7970   -27.4210   -48.2740 hc         1 5IX       0.060200
     51 H5          29.6450   -27.6170   -46.6720 hc         1 5IX       0.045700
     52 H6          30.7750   -26.2780   -46.5870 hc         1 5IX       0.045700
     53 H7          29.4430   -26.3830   -45.4220 hc         1 5IX       0.045700
     54 H8          28.3320   -23.9990   -48.4920 ha         1 5IX       0.172000
     55 H9          29.6230   -21.9070   -48.5130 ha         1 5IX       0.187000
     56 H10         32.3220   -22.1360   -47.0970 h1         1 5IX       0.077700
     57 H11         30.3270   -19.4660   -43.9170 h1         1 5IX       0.059700
     58 H12         27.1590   -28.8700   -46.4890 ha         1 5IX       0.123000
     59 H13         29.8340   -21.6010   -45.1460 hc         1 5IX       0.078200
     60 H14         31.5100   -22.1000   -44.9360 hc         1 5IX       0.078200
     61 H15         31.3690   -21.9160   -42.3850 hc         1 5IX       0.070700
     62 H16         28.5450   -20.6860   -42.2580 h1         1 5IX       0.103700
     63 H17         30.8130   -20.6690   -40.3040 hc         1 5IX       0.050033
     64 H18         32.1070   -19.8880   -41.2210 hc         1 5IX       0.050033
     65 H19         30.4610   -19.2190   -41.2690 hc         1 5IX       0.050033
     66 H20         26.6700   -22.1120   -42.6460 h1         1 5IX       0.101700
     67 H21         26.9660   -25.0570   -43.3950 hc         1 5IX       0.084700
     68 H22         26.6280   -24.4150   -41.7660 hc         1 5IX       0.084700
     69 H23         22.7650   -23.6910   -44.6710 h1         1 5IX       0.051367
     70 H24         22.7210   -25.3410   -45.3510 h1         1 5IX       0.051367
     71 H25         22.4120   -25.0880   -43.6090 h1         1 5IX       0.051367
     72 H26         26.2370   -31.6240   -44.2360 h1         1 5IX       0.047367
     73 H27         26.1320   -30.9360   -45.8690 h1         1 5IX       0.047367
     74 H28         27.5230   -30.5480   -44.8210 h1         1 5IX       0.047367
     75 H29         31.8520   -19.6120   -50.3550 h1         1 5IX       0.040033
     76 H30         30.3430   -20.2150   -49.6560 h1         1 5IX       0.040033
     77 H31         31.2710   -18.9340   -48.8330 h1         1 5IX       0.040033
     78 H32         30.6210   -23.8470   -43.1850 hc         1 5IX       0.052367
     79 H33         29.2430   -24.9300   -43.1770 hc         1 5IX       0.052367
     80 H34         29.5120   -23.8710   -44.5640 hc         1 5IX       0.052367
     81 H35         27.0750   -22.4940   -47.0290 hc         1 5IX       0.079700
     82 H36         27.6490   -20.8050   -47.0940 hc         1 5IX       0.079700
     83 H37         26.1190   -19.0740   -47.7510 ha         1 5IX       0.115000
     84 H38         23.8220   -18.3540   -48.3670 ha         1 5IX       0.114500
     85 H39         21.8900   -19.8880   -48.0100 ha         1 5IX       0.115000
     86 H40         22.2620   -22.1520   -47.0330 ha         1 5IX       0.114500
     87 H41         24.5540   -22.8800   -46.4150 ha         1 5IX       0.115000
     88 H42         32.8670   -19.2590   -46.9020 hn         1 5IX       0.347500
     89 H43         30.4590   -18.7000   -46.3960 ho         1 5IX       0.520000
     90 C35         22.9970   -24.7450   -44.4710 c3         1 5IX       0.089300
     91 C39         27.0800   -21.4660   -45.1380 c          1 5IX       0.597100
@<TRIPOS>BOND
     1     1     3 ar  
     2     1    12 ar  
     3     1    47 1   
     4     2    11 1   
     5     2    17 1   
     6     2    35 1   
     7     2    45 1   
     8     3     4 ar  
     9     3    36 1   
    10     4    13 ar  
    11     4    46 1   
    12     5     9 1   
    13     5    10 2   
    14     5    48 1   
    15     6     7 1   
    16     6    12 1   
    17     6    49 1   
    18     6    50 1   
    19     7     8 1   
    20     7     9 2   
    21     8    51 1   
    22     8    52 1   
    23     8    53 1   
    24     9    54 1   
    25    10    11 1   
    26    10    55 1   
    27    11    37 1   
    28    11    56 1   
    29    12    16 ar  
    30    13    16 ar  
    31    13    43 1   
    32    14    35 1   
    33    14    38 1   
    34    14    39 2   
    35    15    17 1   
    36    15    18 1   
    37    15    38 1   
    38    15    57 1   
    39    16    58 1   
    40    17    59 1   
    41    17    60 1   
    42    18    19 1   
    43    18    20 1   
    44    18    61 1   
    45    19    21 1   
    46    19    40 1   
    47    19    62 1   
    48    20    63 1   
    49    20    64 1   
    50    20    65 1   
    51    21    22 1   
    52    21    27 1   
    53    21    40 1   
    54    22    23 1   
    55    22    41 1   
    56    22    66 1   
    57    23    24 1   
    58    23    67 1   
    59    23    68 1   
    60    24    36 1   
    61    24    42 2   
    62    25    43 1   
    63    25    72 1   
    64    25    73 1   
    65    25    74 1   
    66    26    37 1   
    67    26    75 1   
    68    26    76 1   
    69    26    77 1   
    70    27    78 1   
    71    27    79 1   
    72    27    80 1   
    73    28    29 1   
    74    28    81 1   
    75    28    82 1   
    76    28    91 1   
    77    29    30 ar  
    78    29    34 ar  
    79    30    31 ar  
    80    30    83 1   
    81    31    32 ar  
    82    31    84 1   
    83    32    33 ar  
    84    32    85 1   
    85    33    34 ar  
    86    33    86 1   
    87    34    87 1   
    88    35    88 1   
    89    36    90 1   
    90    41    91 1   
    91    44    91 2   
    92    45    89 1   
    93    69    90 1   
    94    70    90 1   
    95    71    90 1   
@<TRIPOS>SUBSTRUCTURE
     1 5IX         1 TEMP              0 ****  ****    0 ROOT
