@<TRIPOS>MOLECULE
5IY
   24    24     1     0     0
SMALL
abcg2


@<TRIPOS>ATOM
      1 N01         14.3280    -2.0540    32.9400 nv         1 5IY      -1.038900
      2 C02         13.3200    -1.4320    32.2480 cc         1 5IY       0.659300
      3 N03         12.5010    -0.5660    32.7610 nd         1 5IY      -0.667000
      4 C04         11.5200    -0.1820    31.8520 cd         1 5IY       0.293500
      5 C05         10.4920     0.8540    32.2860 c          1 5IY       0.622500
      6 O06          9.3310     0.7490    31.8130 o          1 5IY      -0.705000
      7 O07         10.8940     1.7370    33.0840 o          1 5IY      -0.705000
      8 C08         11.6010    -0.7560    30.6170 cc         1 5IY      -0.184300
      9 C09         10.7770    -0.5660    29.3850 c3         1 5IY       0.003900
     10 C10         11.5650    -0.0620    28.1600 c3         1 5IY      -0.062700
     11 C11         12.2180     1.2910    28.4330 c3         1 5IY      -0.083100
     12 C12         10.6460     0.0030    26.9400 c3         1 5IY      -0.083100
     13 S13         12.9810    -1.8380    30.5790 ss         1 5IY      -0.281400
     14 H1          15.1030    -2.4050    32.3970 hn         1 5IY       0.449000
     15 H2          14.6140    -1.5690    33.7800 hn         1 5IY       0.449000
     16 H4           9.9840     0.1420    29.6260 hc         1 5IY       0.066700
     17 H5          10.2910    -1.5120    29.1190 hc         1 5IY       0.066700
     18 H6          12.3580    -0.7880    27.9470 hc         1 5IY       0.031700
     19 H7          12.9030     1.2400    29.2810 hc         1 5IY       0.027867
     20 H8          12.7800     1.6340    27.5610 hc         1 5IY       0.027867
     21 H9          11.4570     2.0430    28.6620 hc         1 5IY       0.027867
     22 H10         10.2000    -0.9720    26.7290 hc         1 5IY       0.027867
     23 H11          9.8340     0.7150    27.1080 hc         1 5IY       0.027867
     24 H12         11.1960     0.3240    26.0530 hc         1 5IY       0.027867
@<TRIPOS>BOND
     1     1     2 1   
     2     1    14 1   
     3     1    15 1   
     4     2     3 2   
     5     2    13 1   
     6     3     4 1   
     7     4     5 1   
     8     4     8 2   
     9     5     6 1   
    10     5     7 1   
    11     8     9 1   
    12     8    13 1   
    13     9    10 1   
    14     9    16 1   
    15     9    17 1   
    16    10    11 1   
    17    10    12 1   
    18    10    18 1   
    19    11    19 1   
    20    11    20 1   
    21    11    21 1   
    22    12    22 1   
    23    12    23 1   
    24    12    24 1   
@<TRIPOS>SUBSTRUCTURE
     1 5IY         1 TEMP              0 ****  ****    0 ROOT
