@<TRIPOS>MOLECULE
5IY
   24    24     1     0     0
SMALL
No Charge or Current Charge


@<TRIPOS>ATOM
      1 N01         14.2670    -2.1330    32.9550 nv         1 5IY      -1.038900
      2 C02         13.2940    -1.5620    32.2440 cc         1 5IY       0.659300
      3 N03         12.6610    -0.5480    32.7460 nd         1 5IY      -0.667000
      4 C04         11.6840    -0.0860    31.8390 cd         1 5IY       0.293500
      5 C05         10.7520     1.1070    32.1290 c          1 5IY       0.622500
      6 O06          9.9090     1.4690    31.3180 o          1 5IY      -0.705000
      7 O07         10.8660     1.6890    33.2050 o          1 5IY      -0.705000
      8 C08         11.6650    -0.8320    30.6480 cc         1 5IY      -0.184300
      9 C09         10.8120    -0.7110    29.3990 c3         1 5IY       0.003900
     10 C10         11.5310    -0.0110    28.2140 c3         1 5IY      -0.062700
     11 C11         11.9530     1.4400    28.5410 c3         1 5IY      -0.083100
     12 C12         10.6750    -0.0630    26.9280 c3         1 5IY      -0.083100
     13 S13         12.8580    -2.1070    30.6720 ss         1 5IY      -0.281400
     14 H1          14.9330    -2.6990    32.4440 hn         1 5IY       0.449000
     15 H2          14.6230    -1.5910    33.7340 hn         1 5IY       0.449000
     16 H4           9.8530    -0.2220    29.5950 hc         1 5IY       0.066700
     17 H5          10.5380    -1.7240    29.0770 hc         1 5IY       0.066700
     18 H6          12.4490    -0.5750    28.0080 hc         1 5IY       0.031700
     19 H7          12.6200     1.4710    29.4100 hc         1 5IY       0.027867
     20 H8          12.4900     1.8850    27.6940 hc         1 5IY       0.027867
     21 H9          11.0770     2.0640    28.7540 hc         1 5IY       0.027867
     22 H10         10.4330    -1.0990    26.6630 hc         1 5IY       0.027867
     23 H11          9.7350     0.4860    27.0610 hc         1 5IY       0.027867
     24 H12         11.2160     0.3820    26.0840 hc         1 5IY       0.027867
@<TRIPOS>BOND
     1     1     2 1   
     2     1    14 1   
     3     1    15 1   
     4     2     3 2   
     5     2    13 1   
     6     3     4 1   
     7     4     5 1   
     8     4     8 2   
     9     5     6 1   
    10     5     7 1   
    11     8     9 1   
    12     8    13 1   
    13     9    10 1   
    14     9    16 1   
    15     9    17 1   
    16    10    11 1   
    17    10    12 1   
    18    10    18 1   
    19    11    19 1   
    20    11    20 1   
    21    11    21 1   
    22    12    22 1   
    23    12    23 1   
    24    12    24 1   
@<TRIPOS>SUBSTRUCTURE
     1 5IY         1 TEMP              0 ****  ****    0 ROOT
