@<TRIPOS>MOLECULE
5IZ
   61    62     1     0     0
SMALL
abcg2


@<TRIPOS>ATOM
      1 C20        -10.8670    11.8210    69.6350 c          1 5IZ       0.607300
      2 O29        -11.3320    11.8380    68.5010 o          1 5IZ      -0.620100
      3 C21        -10.3390    10.5990    70.2790 ce         1 5IZ      -0.296200
      4 C22        -10.3630     9.4270    69.6370 cf         1 5IZ      -0.072200
      5 C23         -9.8920     8.1400    70.1390 ca         1 5IZ      -0.077800
      6 C24        -10.1200     7.0000    69.3640 ca         1 5IZ      -0.086000
      7 C25         -9.7060     5.7480    69.7940 ca         1 5IZ      -0.115000
      8 C26         -9.0480     5.6160    71.0080 ca         1 5IZ      -0.094000
      9 C27         -8.8060     6.7440    71.7870 ca         1 5IZ      -0.115000
     10 C28         -9.2230     7.9920    71.3590 ca         1 5IZ      -0.086000
     11 N19        -10.8150    12.9290    70.4000 ns         1 5IZ      -0.486900
     12 C14        -11.2350    14.2130    69.9020 c3         1 5IZ       0.043700
     13 C13        -10.2940    14.6510    68.7760 c          1 5IZ       0.591100
     14 O30         -9.0870    14.5120    68.8680 o          1 5IZ      -0.603100
     15 C15        -11.2500    15.2450    71.0430 c3         1 5IZ      -0.066700
     16 C17        -12.1790    14.8120    72.1880 c3         1 5IZ      -0.071400
     17 C16        -11.6190    16.6350    70.5340 c3         1 5IZ      -0.091100
     18 C18        -13.6290    14.5660    71.7930 c3         1 5IZ      -0.093100
     19 C07         -9.6800    11.4410    65.0090 c6         1 5IZ      -0.093400
     20 C03        -10.2110    15.6560    66.5250 c3         1 5IZ      -0.015300
     21 C06         -9.5600    12.9300    65.2810 c6         1 5IZ      -0.072400
     22 C10        -11.7410    13.1680    63.9820 c          1 5IZ       0.569000
     23 C04        -10.8530    15.1230    65.2500 c3         1 5IZ      -0.071400
     24 C02        -10.1240    17.1700    66.5510 c          1 5IZ       0.559900
     25 C05        -10.9300    13.5980    65.1990 c6         1 5IZ      -0.141700
     26 C08        -10.2050    11.2180    63.6070 c6         1 5IZ       0.115000
     27 N12        -10.9020    15.2060    67.7100 ns         1 5IZ      -0.497900
     28 N09        -11.3730    12.0400    63.3520 ns         1 5IZ      -0.507900
     29 H5          -9.9470    10.6880    71.2860 ha         1 5IZ       0.179000
     30 H7         -10.7850     9.4080    68.6370 ha         1 5IZ       0.194000
     31 H9         -10.6310     7.0980    68.4130 ha         1 5IZ       0.114000
     32 H30         -9.8960     4.8780    69.1800 ha         1 5IZ       0.116000
     33 H10         -8.7210     4.6420    71.3470 ha         1 5IZ       0.115000
     34 H31         -8.2890     6.6470    72.7330 ha         1 5IZ       0.116000
     35 H11         -9.0190     8.8540    71.9800 ha         1 5IZ       0.114000
     36 H33        -10.3290    12.8920    71.2830 hn         1 5IZ       0.323500
     37 H23        -12.2500    14.1220    69.5020 h1         1 5IZ       0.075700
     38 H2         -10.2330    15.2970    71.4500 hc         1 5IZ       0.061700
     39 H3         -11.7860    13.9170    72.6760 hc         1 5IZ       0.040200
     40 H4         -12.1400    15.5960    72.9480 hc         1 5IZ       0.040200
     41 H24        -11.7320    17.3210    71.3740 hc         1 5IZ       0.040033
     42 H25        -10.8540    17.0540    69.8800 hc         1 5IZ       0.040033
     43 H26        -12.5600    16.6330    69.9810 hc         1 5IZ       0.040033
     44 H27        -14.2330    14.3600    72.6770 hc         1 5IZ       0.036700
     45 H28        -14.0700    15.4270    71.2900 hc         1 5IZ       0.036700
     46 H29        -13.7300    13.7070    71.1280 hc         1 5IZ       0.036700
     47 H19        -10.3520    10.9860    65.7430 hc         1 5IZ       0.058200
     48 H20         -8.7140    10.9450    65.1100 hc         1 5IZ       0.058200
     49 H13         -9.1740    15.3100    66.6090 h1         1 5IZ       0.099700
     50 H17         -9.1280    13.0950    66.2690 hc         1 5IZ       0.051700
     51 H18         -8.8750    13.3860    64.5570 hc         1 5IZ       0.051700
     52 H14        -10.2780    15.4870    64.3950 hc         1 5IZ       0.071200
     53 H15        -11.8560    15.5420    65.1540 hc         1 5IZ       0.071200
     54 H12         -9.8970    17.5870    67.5500 h4         1 5IZ      -0.007800
     55 H16        -11.5160    13.2480    66.0580 hc         1 5IZ       0.089700
     56 H21        -10.4840    10.1740    63.4580 h1         1 5IZ       0.036200
     57 H22         -9.4220    11.4470    62.8770 h1         1 5IZ       0.036200
     58 H1         -11.9100    15.2640    67.7040 hn         1 5IZ       0.322500
     59 H32        -11.9330    11.7930    62.5490 hn         1 5IZ       0.312500
     60 O01        -10.2720    17.8800    65.5930 o          1 5IZ      -0.501100
     61 O11        -12.7230    13.8060    63.6190 o          1 5IZ      -0.582000
@<TRIPOS>BOND
     1     1     2 2   
     2     1     3 1   
     3     1    11 1   
     4     3     4 2   
     5     3    29 1   
     6     4     5 1   
     7     4    30 1   
     8     5     6 ar  
     9     5    10 ar  
    10     6     7 ar  
    11     6    31 1   
    12     7     8 ar  
    13     7    32 1   
    14     8     9 ar  
    15     8    33 1   
    16     9    10 ar  
    17     9    34 1   
    18    10    35 1   
    19    11    12 1   
    20    11    36 1   
    21    12    13 1   
    22    12    15 1   
    23    12    37 1   
    24    13    14 2   
    25    13    27 1   
    26    15    16 1   
    27    15    17 1   
    28    15    38 1   
    29    16    18 1   
    30    16    39 1   
    31    16    40 1   
    32    17    41 1   
    33    17    42 1   
    34    17    43 1   
    35    18    44 1   
    36    18    45 1   
    37    18    46 1   
    38    19    21 1   
    39    19    26 1   
    40    19    47 1   
    41    19    48 1   
    42    20    23 1   
    43    20    24 1   
    44    20    27 1   
    45    20    49 1   
    46    21    25 1   
    47    21    50 1   
    48    21    51 1   
    49    22    25 1   
    50    22    28 1   
    51    22    61 2   
    52    23    25 1   
    53    23    52 1   
    54    23    53 1   
    55    24    54 1   
    56    24    60 2   
    57    25    55 1   
    58    26    28 1   
    59    26    56 1   
    60    26    57 1   
    61    27    58 1   
    62    28    59 1   
@<TRIPOS>SUBSTRUCTURE
     1 5IZ         1 TEMP              0 ****  ****    0 ROOT
