@<TRIPOS>MOLECULE
5IZ
   61    62     1     0     0
SMALL
No Charge or Current Charge


@<TRIPOS>ATOM
      1 C20        -11.3430    11.4870    70.0480 c          1 5IZ       0.607300
      2 O29        -12.5210    11.4270    69.7310 o          1 5IZ      -0.620100
      3 C21        -10.5600    10.3000    70.4780 ce         1 5IZ      -0.296200
      4 C22        -11.0630     9.0330    70.5670 cf         1 5IZ      -0.072200
      5 C23        -10.3910     7.7830    70.9780 ca         1 5IZ      -0.077800
      6 C24        -11.1230     6.5770    70.9940 ca         1 5IZ      -0.086000
      7 C25        -10.5110     5.3720    71.3790 ca         1 5IZ      -0.115000
      8 C26         -9.1580     5.3580    71.7550 ca         1 5IZ      -0.094000
      9 C27         -8.4190     6.5520    71.7430 ca         1 5IZ      -0.115000
     10 C28         -9.0300     7.7580    71.3570 ca         1 5IZ      -0.086000
     11 N19        -10.6250    12.6580    70.0290 ns         1 5IZ      -0.486900
     12 C14        -11.1590    13.9890    69.6560 c3         1 5IZ       0.043700
     13 C13        -10.2540    14.5940    68.5410 c          1 5IZ       0.591100
     14 O30         -9.0500    14.3820    68.4730 o          1 5IZ      -0.603100
     15 C15        -11.2600    14.9130    70.9160 c3         1 5IZ      -0.066700
     16 C17        -12.1640    14.3330    72.0460 c3         1 5IZ      -0.071400
     17 C16        -11.6560    16.3740    70.5760 c3         1 5IZ      -0.091100
     18 C18        -13.6680    14.2300    71.7050 c3         1 5IZ      -0.093100
     19 C07         -9.0130    12.0670    64.2260 c6         1 5IZ      -0.093400
     20 C03        -10.2830    15.9940    66.4160 c3         1 5IZ      -0.015300
     21 C06         -9.1970    13.4480    64.8790 c6         1 5IZ      -0.072400
     22 C10        -11.5260    13.3700    63.7010 c          1 5IZ       0.569000
     23 C04        -10.8810    15.3940    65.1120 c3         1 5IZ      -0.071400
     24 C02        -10.4120    17.5370    66.4960 c          1 5IZ       0.559900
     25 C05        -10.7010    13.8480    64.9270 c6         1 5IZ      -0.141700
     26 C08         -9.5420    12.0930    62.7790 c6         1 5IZ       0.115000
     27 N12        -10.9090    15.3850    67.6140 ns         1 5IZ      -0.497900
     28 N09        -10.8700    12.7140    62.6840 ns         1 5IZ      -0.507900
     29 H5          -9.5200    10.4870    70.7310 ha         1 5IZ       0.179000
     30 H7         -12.1150     8.9010    70.3010 ha         1 5IZ       0.194000
     31 H9         -12.1720     6.5700    70.7060 ha         1 5IZ       0.114000
     32 H30        -11.0860     4.4490    71.3870 ha         1 5IZ       0.116000
     33 H10         -8.6840     4.4260    72.0530 ha         1 5IZ       0.115000
     34 H31         -7.3710     6.5440    72.0330 ha         1 5IZ       0.116000
     35 H11         -8.4360     8.6670    71.3570 ha         1 5IZ       0.114000
     36 H33         -9.6430    12.5920    70.2700 hn         1 5IZ       0.323500
     37 H23        -12.1590    13.8680    69.2200 h1         1 5IZ       0.075700
     38 H2         -10.2480    14.9690    71.3400 hc         1 5IZ       0.061700
     39 H3         -11.8000    13.3410    72.3380 hc         1 5IZ       0.040200
     40 H4         -12.0570    14.9610    72.9390 hc         1 5IZ       0.040200
     41 H24        -11.7890    16.9630    71.4910 hc         1 5IZ       0.040033
     42 H25        -10.8780    16.8680    69.9830 hc         1 5IZ       0.040033
     43 H26        -12.5950    16.4090    70.0090 hc         1 5IZ       0.040033
     44 H27        -14.2140    13.7810    72.5440 hc         1 5IZ       0.036700
     45 H28        -14.1000    15.2200    71.5160 hc         1 5IZ       0.036700
     46 H29        -13.8360    13.6040    70.8220 hc         1 5IZ       0.036700
     47 H19         -9.5520    11.3060    64.8070 hc         1 5IZ       0.058200
     48 H20         -7.9530    11.7770    64.2320 hc         1 5IZ       0.058200
     49 H13         -9.2030    15.7940    66.4300 h1         1 5IZ       0.099700
     50 H17         -8.7710    13.4420    65.8920 hc         1 5IZ       0.051700
     51 H18         -8.6250    14.1920    64.3050 hc         1 5IZ       0.051700
     52 H14        -10.4390    15.9140    64.2530 hc         1 5IZ       0.071200
     53 H15        -11.9500    15.6420    65.0890 hc         1 5IZ       0.071200
     54 H12         -9.7500    18.0250    67.2450 h4         1 5IZ      -0.007800
     55 H16        -11.1820    13.3750    65.7930 hc         1 5IZ       0.089700
     56 H21         -9.5920    11.0710    62.3770 h1         1 5IZ       0.036200
     57 H22         -8.8520    12.6710    62.1470 h1         1 5IZ       0.036200
     58 H1         -11.9080    15.5040    67.7480 hn         1 5IZ       0.322500
     59 H32        -11.4470    12.4660    61.8890 hn         1 5IZ       0.312500
     60 O01        -11.1740    18.2060    65.8040 o          1 5IZ      -0.501100
     61 O11        -12.7310    13.5500    63.6230 o          1 5IZ      -0.582000
@<TRIPOS>BOND
     1     1     2 2   
     2     1     3 1   
     3     1    11 1   
     4     3     4 2   
     5     3    29 1   
     6     4     5 1   
     7     4    30 1   
     8     5     6 ar  
     9     5    10 ar  
    10     6     7 ar  
    11     6    31 1   
    12     7     8 ar  
    13     7    32 1   
    14     8     9 ar  
    15     8    33 1   
    16     9    10 ar  
    17     9    34 1   
    18    10    35 1   
    19    11    12 1   
    20    11    36 1   
    21    12    13 1   
    22    12    15 1   
    23    12    37 1   
    24    13    14 2   
    25    13    27 1   
    26    15    16 1   
    27    15    17 1   
    28    15    38 1   
    29    16    18 1   
    30    16    39 1   
    31    16    40 1   
    32    17    41 1   
    33    17    42 1   
    34    17    43 1   
    35    18    44 1   
    36    18    45 1   
    37    18    46 1   
    38    19    21 1   
    39    19    26 1   
    40    19    47 1   
    41    19    48 1   
    42    20    23 1   
    43    20    24 1   
    44    20    27 1   
    45    20    49 1   
    46    21    25 1   
    47    21    50 1   
    48    21    51 1   
    49    22    25 1   
    50    22    28 1   
    51    22    61 2   
    52    23    25 1   
    53    23    52 1   
    54    23    53 1   
    55    24    54 1   
    56    24    60 2   
    57    25    55 1   
    58    26    28 1   
    59    26    56 1   
    60    26    57 1   
    61    27    58 1   
    62    28    59 1   
@<TRIPOS>SUBSTRUCTURE
     1 5IZ         1 TEMP              0 ****  ****    0 ROOT
