@<TRIPOS>MOLECULE
5J0
   48    51     1     0     0
SMALL
bcc


@<TRIPOS>ATOM
      1 C01         -2.7250    -1.6430    -1.5010 c6         1 5J0      -0.063150
      2 C02         -2.0470    -2.8990    -2.0500 c6         1 5J0      -0.070400
      3 C03         -0.5380    -2.9060    -1.8100 c6         1 5J0      -0.063150
      4 C04         -0.1090    -2.4630    -0.4000 c6         1 5J0      -0.026000
      5 C05         -0.4900    -3.4410     0.7220 c6         1 5J0      -0.063150
      6 C06         -1.9890    -3.5100     1.0150 c6         1 5J0      -0.070400
      7 C07         -2.6390    -2.1290     1.0430 c6         1 5J0      -0.063150
      8 C08         -2.2260    -1.2040    -0.1160 c6         1 5J0      -0.026000
      9 C09         -0.7220    -1.1150    -0.1270 c2         1 5J0      -0.066400
     10 C10         -0.0260     0.0130     0.0800 ce         1 5J0      -0.027400
     11 C11         -0.6750     1.3420     0.2350 ca         1 5J0      -0.005800
     12 C12          1.4540     0.0530     0.1870 ca         1 5J0      -0.079800
     13 C13          2.1470    -0.6860     1.1430 ca         1 5J0      -0.078500
     14 C14          3.5290    -0.6170     1.2540 ca         1 5J0      -0.196500
     15 C15          4.2550     0.2110     0.4040 ca         1 5J0       0.138100
     16 C16          3.5790     0.9680    -0.5510 ca         1 5J0      -0.196500
     17 C17          2.2000     0.8900    -0.6460 ca         1 5J0      -0.078500
     18 C18         -1.4510     1.8820    -0.7850 ca         1 5J0      -0.159000
     19 C19         -2.0440     3.1350    -0.6430 ca         1 5J0       0.135100
     20 C20         -1.8520     3.8620     0.5270 ca         1 5J0      -0.225000
     21 C21         -1.0660     3.3290     1.5400 ca         1 5J0      -0.090000
     22 C22         -0.4730     2.0850     1.4010 ca         1 5J0      -0.151000
     23 O01          5.5970     0.3250     0.4650 oh         1 5J0      -0.495100
     24 O02         -2.7880     3.5940    -1.6710 oh         1 5J0      -0.497100
     25 H1          -2.5460    -0.8140    -2.1930 hc         1 5J0       0.038700
     26 H2          -3.8090    -1.7860    -1.4730 hc         1 5J0       0.038700
     27 H3          -2.5020    -3.7930    -1.6240 hc         1 5J0       0.037450
     28 H4          -2.2350    -2.9650    -3.1250 hc         1 5J0       0.037450
     29 H5          -0.1310    -3.9010    -2.0150 hc         1 5J0       0.038700
     30 H6          -0.0590    -2.2270    -2.5230 hc         1 5J0       0.038700
     31 H7           0.9790    -2.3910    -0.4120 hc         1 5J0       0.058700
     32 H8          -0.1060    -4.4380     0.4860 hc         1 5J0       0.038700
     33 H9           0.0300    -3.1200     1.6310 hc         1 5J0       0.038700
     34 H10         -2.4900    -4.1470     0.2860 hc         1 5J0       0.037450
     35 H11         -2.1450    -3.9980     1.9810 hc         1 5J0       0.037450
     36 H12         -3.7280    -2.2240     1.0630 hc         1 5J0       0.038700
     37 H13         -2.3560    -1.6260     1.9740 hc         1 5J0       0.038700
     38 H14         -2.6630    -0.2270     0.0930 hc         1 5J0       0.058700
     39 H15          1.5990    -1.3230     1.8260 ha         1 5J0       0.135500
     40 H16          4.0370    -1.2020     2.0140 ha         1 5J0       0.138000
     41 H17          4.1370     1.6190    -1.2140 ha         1 5J0       0.138000
     42 H18          1.6930     1.4930    -1.3900 ha         1 5J0       0.135500
     43 H19         -1.5960     1.3260    -1.7040 ha         1 5J0       0.148000
     44 H20         -2.3060     4.8390     0.6490 ha         1 5J0       0.129000
     45 H21         -0.9190     3.8980     2.4490 ha         1 5J0       0.130000
     46 H22          0.1410     1.6830     2.1970 ha         1 5J0       0.138000
     47 H23          5.9480    -0.2180     1.1790 ho         1 5J0       0.424000
     48 H24         -3.1450     4.4650    -1.4620 ho         1 5J0       0.424000
@<TRIPOS>BOND
     1     1     2 1   
     2     1     8 1   
     3     1    25 1   
     4     1    26 1   
     5     2     3 1   
     6     2    27 1   
     7     2    28 1   
     8     3     4 1   
     9     3    29 1   
    10     3    30 1   
    11     4     5 1   
    12     4     9 1   
    13     4    31 1   
    14     5     6 1   
    15     5    32 1   
    16     5    33 1   
    17     6     7 1   
    18     6    34 1   
    19     6    35 1   
    20     7     8 1   
    21     7    36 1   
    22     7    37 1   
    23     8     9 1   
    24     8    38 1   
    25     9    10 2   
    26    10    11 1   
    27    10    12 1   
    28    11    18 ar  
    29    11    22 ar  
    30    12    13 ar  
    31    12    17 ar  
    32    13    14 ar  
    33    13    39 1   
    34    14    15 ar  
    35    14    40 1   
    36    15    16 ar  
    37    15    23 1   
    38    16    17 ar  
    39    16    41 1   
    40    17    42 1   
    41    18    19 ar  
    42    18    43 1   
    43    19    20 ar  
    44    19    24 1   
    45    20    21 ar  
    46    20    44 1   
    47    21    22 ar  
    48    21    45 1   
    49    22    46 1   
    50    23    47 1   
    51    24    48 1   
@<TRIPOS>SUBSTRUCTURE
     1 5J0         1 TEMP              0 ****  ****    0 ROOT
