@<TRIPOS>MOLECULE
5J0
   48    51     1     0     0
SMALL
No Charge or Current Charge


@<TRIPOS>ATOM
      1 C01         -2.7130    -1.6590    -1.5640 c6         1 5J0      -0.063150
      2 C02         -2.0140    -2.9410    -2.0970 c6         1 5J0      -0.070400
      3 C03         -0.4870    -2.9660    -1.8070 c6         1 5J0      -0.063150
      4 C04         -0.0910    -2.4800    -0.3800 c6         1 5J0      -0.026000
      5 C05         -0.4810    -3.4500     0.7760 c6         1 5J0      -0.063150
      6 C06         -2.0080    -3.5320     1.0540 c6         1 5J0      -0.070400
      7 C07         -2.7080    -2.1440     1.0190 c6         1 5J0      -0.063150
      8 C08         -2.2460    -1.2160    -0.1450 c6         1 5J0      -0.026000
      9 C09         -0.7210    -1.1110    -0.1250 c2         1 5J0      -0.066400
     10 C10         -0.0230     0.0400     0.0890 ce         1 5J0      -0.027400
     11 C11         -0.6770     1.3670     0.2680 ca         1 5J0      -0.005800
     12 C12          1.4640     0.0860     0.1640 ca         1 5J0      -0.079800
     13 C13          2.1500    -0.5770     1.2010 ca         1 5J0      -0.060500
     14 C14          3.5530    -0.5170     1.2750 ca         1 5J0      -0.178500
     15 C15          4.2740     0.2130     0.3170 ca         1 5J0       0.138100
     16 C16          3.5970     0.8850    -0.7100 ca         1 5J0      -0.178500
     17 C17          2.1940     0.8260    -0.7860 ca         1 5J0      -0.060500
     18 C18         -1.4110     1.9520    -0.7820 ca         1 5J0      -0.141000
     19 C19         -2.0120     3.2070    -0.6130 ca         1 5J0       0.135100
     20 C20         -1.8800     3.8940     0.6040 ca         1 5J0      -0.207000
     21 C21         -1.1390     3.3220     1.6530 ca         1 5J0      -0.072000
     22 C22         -0.5370     2.0640     1.4820 ca         1 5J0      -0.133000
     23 O01          5.6340     0.2760     0.3820 oh         1 5J0      -0.534100
     24 O02         -2.7230     3.7610    -1.6340 oh         1 5J0      -0.536100
     25 H1          -2.5080    -0.8390    -2.2660 hc         1 5J0       0.038700
     26 H2          -3.8030    -1.7970    -1.5770 hc         1 5J0       0.038700
     27 H3          -2.4980    -3.8390    -1.7010 hc         1 5J0       0.037450
     28 H4          -2.1710    -3.0070    -3.1820 hc         1 5J0       0.037450
     29 H5          -0.0900    -3.9740    -1.9860 hc         1 5J0       0.038700
     30 H6           0.0120    -2.3150    -2.5390 hc         1 5J0       0.038700
     31 H7           1.0030    -2.4040    -0.3770 hc         1 5J0       0.058700
     32 H8          -0.0850    -4.4550     0.5760 hc         1 5J0       0.038700
     33 H9           0.0170    -3.1090     1.6940 hc         1 5J0       0.038700
     34 H10         -2.4910    -4.2280     0.3610 hc         1 5J0       0.037450
     35 H11         -2.1650    -3.9840     2.0430 hc         1 5J0       0.037450
     36 H12         -3.7980    -2.2780     0.9850 hc         1 5J0       0.038700
     37 H13         -2.5000    -1.6300     1.9670 hc         1 5J0       0.038700
     38 H14         -2.7000    -0.2360     0.0490 hc         1 5J0       0.058700
     39 H15          1.5920    -1.1350     1.9500 ha         1 5J0       0.117500
     40 H16          4.0690    -1.0360     2.0790 ha         1 5J0       0.120000
     41 H17          4.1560     1.4530    -1.4490 ha         1 5J0       0.120000
     42 H18          1.6720     1.3500    -1.5840 ha         1 5J0       0.117500
     43 H19         -1.5110     1.4300    -1.7300 ha         1 5J0       0.130000
     44 H20         -2.3420     4.8680     0.7430 ha         1 5J0       0.111000
     45 H21         -1.0290     3.8530     2.5970 ha         1 5J0       0.112000
     46 H22          0.0380     1.6260     2.2950 ha         1 5J0       0.120000
     47 H23          5.9310    -0.2460     1.1580 ho         1 5J0       0.463000
     48 H24         -3.0640     4.6310    -1.3360 ho         1 5J0       0.463000
@<TRIPOS>BOND
     1     1     2 1   
     2     1     8 1   
     3     1    25 1   
     4     1    26 1   
     5     2     3 1   
     6     2    27 1   
     7     2    28 1   
     8     3     4 1   
     9     3    29 1   
    10     3    30 1   
    11     4     5 1   
    12     4     9 1   
    13     4    31 1   
    14     5     6 1   
    15     5    32 1   
    16     5    33 1   
    17     6     7 1   
    18     6    34 1   
    19     6    35 1   
    20     7     8 1   
    21     7    36 1   
    22     7    37 1   
    23     8     9 1   
    24     8    38 1   
    25     9    10 2   
    26    10    11 1   
    27    10    12 1   
    28    11    18 ar  
    29    11    22 ar  
    30    12    13 ar  
    31    12    17 ar  
    32    13    14 ar  
    33    13    39 1   
    34    14    15 ar  
    35    14    40 1   
    36    15    16 ar  
    37    15    23 1   
    38    16    17 ar  
    39    16    41 1   
    40    17    42 1   
    41    18    19 ar  
    42    18    43 1   
    43    19    20 ar  
    44    19    24 1   
    45    20    21 ar  
    46    20    44 1   
    47    21    22 ar  
    48    21    45 1   
    49    22    46 1   
    50    23    47 1   
    51    24    48 1   
@<TRIPOS>SUBSTRUCTURE
     1 5J0         1 TEMP              0 ****  ****    0 ROOT
