@<TRIPOS>MOLECULE
5J1
   50    53     1     0     0
SMALL
No Charge or Current Charge


@<TRIPOS>ATOM
      1 C01          1.6330    -2.6130     1.2740 c6         1 5J1      -0.065900
      2 C02          0.4190    -3.4870     1.7010 c6         1 5J1      -0.069900
      3 C03         -0.9500    -2.9360     1.2100 c6         1 5J1      -0.065900
      4 C04         -0.9380    -2.3680    -0.2470 c6         1 5J1      -0.052700
      5 C05         -0.8140    -3.4650    -1.3510 c6         1 5J1      -0.065900
      6 C06          0.5800    -4.1490    -1.4250 c6         1 5J1      -0.069900
      7 C07          1.7570    -3.1440    -1.2870 c6         1 5J1      -0.065900
      8 C08          1.5530    -2.0570    -0.1840 c6         1 5J1      -0.052700
      9 C09          0.2010    -1.3180    -0.4310 c6         1 5J1      -0.043700
     10 C10          0.0170    -0.0120     0.4360 c3         1 5J1       0.044900
     11 C11          1.1560     1.0040     0.2810 ca         1 5J1      -0.104300
     12 C12         -1.3290     0.6950     0.2200 ca         1 5J1      -0.104300
     13 C13         -2.1030     1.0740     1.3380 ca         1 5J1      -0.067000
     14 C14         -3.3390     1.7230     1.1650 ca         1 5J1      -0.174000
     15 C15         -3.8100     2.0020    -0.1270 ca         1 5J1       0.136100
     16 C16         -3.0470     1.6360    -1.2440 ca         1 5J1      -0.174000
     17 C17         -1.8110     0.9870    -1.0740 ca         1 5J1      -0.067000
     18 C18          1.7670     1.5470     1.4320 ca         1 5J1      -0.067000
     19 C19          2.8120     2.4790     1.3120 ca         1 5J1      -0.174000
     20 C20          3.2550     2.8810     0.0450 ca         1 5J1       0.136100
     21 C21          2.6530     2.3530    -1.1070 ca         1 5J1      -0.174000
     22 C22          1.6070     1.4210    -0.9910 ca         1 5J1      -0.067000
     23 O01          4.2690     3.7850    -0.0610 oh         1 5J1      -0.534600
     24 O02         -5.0060     2.6310    -0.3030 oh         1 5J1      -0.534600
     25 H1           1.7270    -1.7730     1.9740 hc         1 5J1       0.035700
     26 H2           2.5590    -3.1920     1.3990 hc         1 5J1       0.035700
     27 H3           0.5560    -4.5210     1.3710 hc         1 5J1       0.035700
     28 H4           0.4000    -3.5570     2.7970 hc         1 5J1       0.035700
     29 H5          -1.7100    -3.7250     1.2930 hc         1 5J1       0.035700
     30 H6          -1.2820    -2.1480     1.8990 hc         1 5J1       0.035700
     31 H7          -1.9050    -1.8730    -0.4090 hc         1 5J1       0.051200
     32 H8          -1.5920    -4.2280    -1.2130 hc         1 5J1       0.035700
     33 H9          -1.0240    -3.0010    -2.3250 hc         1 5J1       0.035700
     34 H10          0.6610    -4.9470    -0.6800 hc         1 5J1       0.035700
     35 H11          0.6690    -4.6700    -2.3880 hc         1 5J1       0.035700
     36 H12          2.6910    -3.6930    -1.1070 hc         1 5J1       0.035700
     37 H13          1.8940    -2.6370    -2.2520 hc         1 5J1       0.035700
     38 H14          2.3760    -1.3380    -0.3030 hc         1 5J1       0.051200
     39 H15          0.1870    -0.9920    -1.4790 hc         1 5J1       0.044700
     40 H16          0.0310    -0.3310     1.4830 hc         1 5J1       0.057700
     41 H17         -1.7490     0.8660     2.3450 ha         1 5J1       0.111000
     42 H18         -3.9210     2.0050     2.0380 ha         1 5J1       0.119250
     43 H19         -3.4100     1.8550    -2.2440 ha         1 5J1       0.119250
     44 H20         -1.2350     0.7160    -1.9550 ha         1 5J1       0.111000
     45 H21          1.4330     1.2480     2.4230 ha         1 5J1       0.111000
     46 H22          3.2770     2.8900     2.2050 ha         1 5J1       0.119250
     47 H23          2.9880     2.6610    -2.0950 ha         1 5J1       0.119250
     48 H24          1.1510     1.0270    -1.8950 ha         1 5J1       0.111000
     49 H25          4.4430     3.9460    -1.0130 ho         1 5J1       0.463000
     50 H26         -5.3940     2.8100     0.5800 ho         1 5J1       0.463000
@<TRIPOS>BOND
     1     1     2 1   
     2     1     8 1   
     3     1    25 1   
     4     1    26 1   
     5     2     3 1   
     6     2    27 1   
     7     2    28 1   
     8     3     4 1   
     9     3    29 1   
    10     3    30 1   
    11     4     5 1   
    12     4     9 1   
    13     4    31 1   
    14     5     6 1   
    15     5    32 1   
    16     5    33 1   
    17     6     7 1   
    18     6    34 1   
    19     6    35 1   
    20     7     8 1   
    21     7    36 1   
    22     7    37 1   
    23     8     9 1   
    24     8    38 1   
    25     9    10 1   
    26     9    39 1   
    27    10    11 1   
    28    10    12 1   
    29    10    40 1   
    30    11    18 ar  
    31    11    22 ar  
    32    12    13 ar  
    33    12    17 ar  
    34    13    14 ar  
    35    13    41 1   
    36    14    15 ar  
    37    14    42 1   
    38    15    16 ar  
    39    15    24 1   
    40    16    17 ar  
    41    16    43 1   
    42    17    44 1   
    43    18    19 ar  
    44    18    45 1   
    45    19    20 ar  
    46    19    46 1   
    47    20    21 ar  
    48    20    23 1   
    49    21    22 ar  
    50    21    47 1   
    51    22    48 1   
    52    23    49 1   
    53    24    50 1   
@<TRIPOS>SUBSTRUCTURE
     1 5J1         1 TEMP              0 ****  ****    0 ROOT
