@<TRIPOS>MOLECULE
5J1
   50    53     1     0     0
SMALL
bcc


@<TRIPOS>ATOM
      1 C01          1.6650    -2.5320     1.1840 c6         1 5J1      -0.065900
      2 C02          0.4970    -3.3940     1.6740 c6         1 5J1      -0.069900
      3 C03         -0.8760    -2.8650     1.2490 c6         1 5J1      -0.065900
      4 C04         -0.9400    -2.3310    -0.1860 c6         1 5J1      -0.052700
      5 C05         -0.8610    -3.4170    -1.2640 c6         1 5J1      -0.065900
      6 C06          0.5040    -4.0970    -1.3750 c6         1 5J1      -0.069900
      7 C07          1.6540    -3.0910    -1.3340 c6         1 5J1      -0.065900
      8 C08          1.5170    -2.0140    -0.2510 c6         1 5J1      -0.052700
      9 C09          0.1710    -1.3010    -0.4330 c6         1 5J1      -0.043700
     10 C10          0.0210    -0.0420     0.4420 c3         1 5J1       0.044900
     11 C11          1.1590     0.9450     0.2790 ca         1 5J1      -0.104300
     12 C12         -1.3110     0.6470     0.2250 ca         1 5J1      -0.104300
     13 C13         -2.1620     0.8880     1.2960 ca         1 5J1      -0.085000
     14 C14         -3.3810     1.5330     1.1330 ca         1 5J1      -0.192000
     15 C15         -3.7790     1.9520    -0.1310 ca         1 5J1       0.136100
     16 C16         -2.9410     1.7160    -1.2200 ca         1 5J1      -0.192000
     17 C17         -1.7290     1.0730    -1.0350 ca         1 5J1      -0.085000
     18 C18          1.6930     1.5780     1.3990 ca         1 5J1      -0.085000
     19 C19          2.7160     2.5080     1.3000 ca         1 5J1      -0.192000
     20 C20          3.2420     2.8280     0.0510 ca         1 5J1       0.136100
     21 C21          2.7240     2.2060    -1.0810 ca         1 5J1      -0.192000
     22 C22          1.6980     1.2790    -0.9600 ca         1 5J1      -0.085000
     23 O01          4.2420     3.7330    -0.0050 oh         1 5J1      -0.495600
     24 O02         -4.9490     2.5860    -0.3600 oh         1 5J1      -0.495600
     25 H1           1.7830    -1.6710     1.8490 hc         1 5J1       0.035700
     26 H2           2.5970    -3.0990     1.2700 hc         1 5J1       0.035700
     27 H3           0.6240    -4.4180     1.3220 hc         1 5J1       0.035700
     28 H4           0.5330    -3.4610     2.7640 hc         1 5J1       0.035700
     29 H5          -1.6280    -3.6490     1.3790 hc         1 5J1       0.035700
     30 H6          -1.1770    -2.0600     1.9270 hc         1 5J1       0.035700
     31 H7          -1.9120    -1.8420    -0.3040 hc         1 5J1       0.051200
     32 H8          -1.6390    -4.1670    -1.0920 hc         1 5J1       0.035700
     33 H9          -1.1000    -2.9500    -2.2250 hc         1 5J1       0.035700
     34 H10          0.6230    -4.8410    -0.5870 hc         1 5J1       0.035700
     35 H11          0.5500    -4.6600    -2.3110 hc         1 5J1       0.035700
     36 H12          2.6070    -3.6170    -1.2210 hc         1 5J1       0.035700
     37 H13          1.7020    -2.5770    -2.3010 hc         1 5J1       0.035700
     38 H14          2.3280    -1.2980    -0.4150 hc         1 5J1       0.051200
     39 H15          0.1000    -0.9870    -1.4830 hc         1 5J1       0.044700
     40 H16          0.0370    -0.3520     1.4910 hc         1 5J1       0.057700
     41 H17         -1.8670     0.5700     2.2900 ha         1 5J1       0.129000
     42 H18         -4.0190     1.7030     1.9940 ha         1 5J1       0.137250
     43 H19         -3.2430     2.0360    -2.2090 ha         1 5J1       0.137250
     44 H20         -1.1020     0.9050    -1.9030 ha         1 5J1       0.129000
     45 H21          1.3020     1.3380     2.3810 ha         1 5J1       0.129000
     46 H22          3.1130     2.9820     2.1890 ha         1 5J1       0.137250
     47 H23          3.1240     2.4370    -2.0620 ha         1 5J1       0.137250
     48 H24          1.3290     0.8080    -1.8630 ha         1 5J1       0.129000
     49 H25          4.5420     3.8430    -0.9140 ho         1 5J1       0.424000
     50 H26         -5.4300     2.7070     0.4670 ho         1 5J1       0.424000
@<TRIPOS>BOND
     1     1     2 1   
     2     1     8 1   
     3     1    25 1   
     4     1    26 1   
     5     2     3 1   
     6     2    27 1   
     7     2    28 1   
     8     3     4 1   
     9     3    29 1   
    10     3    30 1   
    11     4     5 1   
    12     4     9 1   
    13     4    31 1   
    14     5     6 1   
    15     5    32 1   
    16     5    33 1   
    17     6     7 1   
    18     6    34 1   
    19     6    35 1   
    20     7     8 1   
    21     7    36 1   
    22     7    37 1   
    23     8     9 1   
    24     8    38 1   
    25     9    10 1   
    26     9    39 1   
    27    10    11 1   
    28    10    12 1   
    29    10    40 1   
    30    11    18 ar  
    31    11    22 ar  
    32    12    13 ar  
    33    12    17 ar  
    34    13    14 ar  
    35    13    41 1   
    36    14    15 ar  
    37    14    42 1   
    38    15    16 ar  
    39    15    24 1   
    40    16    17 ar  
    41    16    43 1   
    42    17    44 1   
    43    18    19 ar  
    44    18    45 1   
    45    19    20 ar  
    46    19    46 1   
    47    20    21 ar  
    48    20    23 1   
    49    21    22 ar  
    50    21    47 1   
    51    22    48 1   
    52    23    49 1   
    53    24    50 1   
@<TRIPOS>SUBSTRUCTURE
     1 5J1         1 TEMP              0 ****  ****    0 ROOT
