@<TRIPOS>MOLECULE
5J2
   38    40     1     0     0
SMALL
No Charge or Current Charge


@<TRIPOS>ATOM
      1 O01         -2.3090     4.7970    -0.4730 oh         1 5J2      -0.528100
      2 C02         -1.6060     3.6300    -0.4890 ca         1 5J2       0.157100
      3 C03         -1.8110     2.7110    -1.5270 ca         1 5J2      -0.181000
      4 C04         -1.0930     1.5030    -1.5530 ca         1 5J2      -0.043000
      5 C05         -0.1460     1.2130    -0.5460 ca         1 5J2      -0.234900
      6 C06          0.5760    -0.0990    -0.5370 ce         1 5J2       0.622500
      7 C07          2.0390    -0.1510    -0.2020 ca         1 5J2      -0.323900
      8 C08          2.8390     1.0040    -0.3670 ca         1 5J2       0.002000
      9 C09          4.2120     0.9700    -0.0760 ca         1 5J2      -0.208000
     10 C10          4.8090    -0.2150     0.3620 ca         1 5J2       0.210100
     11 O11          6.1390    -0.2400     0.6410 oh         1 5J2      -0.526100
     12 C12          4.0420    -1.3750     0.4930 ca         1 5J2      -0.290000
     13 C13          2.6740    -1.3480     0.2000 ca         1 5J2       0.261100
     14 O14          1.9760    -2.5050     0.3100 oh         1 5J2      -0.556100
     15 N15         -0.0660    -1.2040    -0.8400 nf         1 5J2      -0.667100
     16 C16         -1.3270    -1.5290    -0.2900 ca         1 5J2       0.135400
     17 C17         -2.4190    -1.7640    -1.1450 ca         1 5J2      -0.090000
     18 C18         -3.6810    -2.0820    -0.6080 ca         1 5J2      -0.140500
     19 C19         -3.8450    -2.1680     0.7830 ca         1 5J2       0.163000
     20 F20         -5.0560    -2.4740     1.2990 f          1 5J2      -0.179000
     21 C21         -2.7580    -1.9400     1.6420 ca         1 5J2      -0.140500
     22 C22         -1.4970    -1.6210     1.1050 ca         1 5J2      -0.090000
     23 C23          0.0300     2.1330     0.5110 ca         1 5J2      -0.043000
     24 C24         -0.6900     3.3400     0.5330 ca         1 5J2      -0.181000
     25 H1          -2.0410     5.3090     0.3190 ho         1 5J2       0.469000
     26 H2          -2.5290     2.9320    -2.3120 ha         1 5J2       0.126500
     27 H3          -1.2660     0.7970    -2.3630 ha         1 5J2       0.123500
     28 H4           2.4090     1.9360    -0.7290 ha         1 5J2       0.120000
     29 H5           4.8140     1.8660    -0.1980 ha         1 5J2       0.133000
     30 H6           6.3720    -1.1490     0.9250 ho         1 5J2       0.472000
     31 H7           4.5010    -2.3060     0.8130 ha         1 5J2       0.131000
     32 H8           1.0980    -2.3140    -0.1110 ho         1 5J2       0.531000
     33 H9          -2.2880    -1.6970    -2.2220 ha         1 5J2       0.125000
     34 H10         -4.5260    -2.2620    -1.2670 ha         1 5J2       0.133500
     35 H11         -2.8940    -2.0090     2.7180 ha         1 5J2       0.133500
     36 H12         -0.6570    -1.4430     1.7730 ha         1 5J2       0.125000
     37 H13          0.7220     1.9100     1.3220 ha         1 5J2       0.123500
     38 H14         -0.5350     4.0400     1.3510 ha         1 5J2       0.126500
@<TRIPOS>BOND
     1     1     2 1   
     2     1    25 1   
     3     2     3 ar  
     4     2    24 ar  
     5     3     4 ar  
     6     3    26 1   
     7     4     5 ar  
     8     4    27 1   
     9     5     6 1   
    10     5    23 ar  
    11     6     7 1   
    12     6    15 2   
    13     7     8 ar  
    14     7    13 ar  
    15     8     9 ar  
    16     8    28 1   
    17     9    10 ar  
    18     9    29 1   
    19    10    11 1   
    20    10    12 ar  
    21    11    30 1   
    22    12    13 ar  
    23    12    31 1   
    24    13    14 1   
    25    14    32 1   
    26    15    16 1   
    27    16    17 ar  
    28    16    22 ar  
    29    17    18 ar  
    30    17    33 1   
    31    18    19 ar  
    32    18    34 1   
    33    19    20 1   
    34    19    21 ar  
    35    21    22 ar  
    36    21    35 1   
    37    22    36 1   
    38    23    24 ar  
    39    23    37 1   
    40    24    38 1   
@<TRIPOS>SUBSTRUCTURE
     1 5J2         1 TEMP              0 ****  ****    0 ROOT
