@<TRIPOS>MOLECULE
5J2
   38    40     1     0     0
SMALL
abcg2


@<TRIPOS>ATOM
      1 O01         -2.2650     4.6030    -0.2900 oh         1 5J2      -0.528100
      2 C02         -1.5480     3.4700    -0.2030 ca         1 5J2       0.157100
      3 C03         -1.6830     2.5380    -1.2310 ca         1 5J2      -0.181000
      4 C04         -0.9730     1.3530    -1.1850 ca         1 5J2      -0.043000
      5 C05         -0.1040     1.0780    -0.1310 ca         1 5J2      -0.234900
      6 C06          0.6250    -0.2140    -0.0920 ce         1 5J2       0.622500
      7 C07          2.0860    -0.2090    -0.1040 ca         1 5J2      -0.323900
      8 C08          2.8120     0.9770    -0.2880 ca         1 5J2       0.002000
      9 C09          4.1860     1.0120    -0.2800 ca         1 5J2      -0.208000
     10 C10          4.8940    -0.1790    -0.0810 ca         1 5J2       0.210100
     11 O11          6.2310    -0.1070    -0.0670 oh         1 5J2      -0.526100
     12 C12          4.2150    -1.3770     0.0820 ca         1 5J2      -0.290000
     13 C13          2.8220    -1.4090     0.0590 ca         1 5J2       0.261100
     14 O14          2.2280    -2.5880     0.1930 oh         1 5J2      -0.556100
     15 N15          0.0200    -1.3510    -0.0710 nf         1 5J2      -0.667100
     16 C16         -1.3690    -1.4840     0.0400 ca         1 5J2       0.135400
     17 C17         -2.0390    -2.2750    -0.8910 ca         1 5J2      -0.090000
     18 C18         -3.4090    -2.4720    -0.8020 ca         1 5J2      -0.140500
     19 C19         -4.0960    -1.8880     0.2440 ca         1 5J2       0.163000
     20 F20         -5.4240    -2.0770     0.3420 f          1 5J2      -0.179000
     21 C21         -3.4570    -1.1220     1.2000 ca         1 5J2      -0.140500
     22 C22         -2.0900    -0.9210     1.0930 ca         1 5J2      -0.090000
     23 C23          0.0330     2.0180     0.8850 ca         1 5J2      -0.043000
     24 C24         -0.6870     3.2020     0.8590 ca         1 5J2      -0.181000
     25 H1          -2.0940     5.1750     0.4670 ho         1 5J2       0.469000
     26 H2          -2.3450     2.7460    -2.0620 ha         1 5J2       0.126500
     27 H3          -1.0910     0.6380    -1.9890 ha         1 5J2       0.123500
     28 H4           2.2770     1.9030    -0.4520 ha         1 5J2       0.120000
     29 H5           4.7170     1.9430    -0.4280 ha         1 5J2       0.133000
     30 H6           6.6200    -0.9750     0.0940 ho         1 5J2       0.472000
     31 H7           4.7580    -2.3060     0.2210 ha         1 5J2       0.131000
     32 H8           1.2440    -2.4270     0.0980 ho         1 5J2       0.531000
     33 H9          -1.4830    -2.7290    -1.7010 ha         1 5J2       0.125000
     34 H10         -3.9300    -3.0740    -1.5340 ha         1 5J2       0.133500
     35 H11         -4.0140    -0.6870     2.0190 ha         1 5J2       0.133500
     36 H12         -1.5820    -0.3320     1.8460 ha         1 5J2       0.125000
     37 H13          0.6980     1.8250     1.7170 ha         1 5J2       0.123500
     38 H14         -0.5730     3.9160     1.6670 ha         1 5J2       0.126500
@<TRIPOS>BOND
     1     1     2 1   
     2     1    25 1   
     3     2     3 ar  
     4     2    24 ar  
     5     3     4 ar  
     6     3    26 1   
     7     4     5 ar  
     8     4    27 1   
     9     5     6 1   
    10     5    23 ar  
    11     6     7 1   
    12     6    15 2   
    13     7     8 ar  
    14     7    13 ar  
    15     8     9 ar  
    16     8    28 1   
    17     9    10 ar  
    18     9    29 1   
    19    10    11 1   
    20    10    12 ar  
    21    11    30 1   
    22    12    13 ar  
    23    12    31 1   
    24    13    14 1   
    25    14    32 1   
    26    15    16 1   
    27    16    17 ar  
    28    16    22 ar  
    29    17    18 ar  
    30    17    33 1   
    31    18    19 ar  
    32    18    34 1   
    33    19    20 1   
    34    19    21 ar  
    35    21    22 ar  
    36    21    35 1   
    37    22    36 1   
    38    23    24 ar  
    39    23    37 1   
    40    24    38 1   
@<TRIPOS>SUBSTRUCTURE
     1 5J2         1 TEMP              0 ****  ****    0 ROOT
