@<TRIPOS>MOLECULE
5J4
   29    32     1     0     0
SMALL
abcg2


@<TRIPOS>ATOM
      1 C1          -3.0390     0.3200     0.2920 ca         1 5J4       0.336000
      2 C2          -2.8040    -1.0560     0.4950 ca         1 5J4      -0.154000
      3 C3          -1.5270    -1.5660     0.4900 ca         1 5J4      -0.013000
      4 C4          -0.4410    -0.7050     0.3180 ca         1 5J4       0.052400
      5 C5          -0.6880     0.6700     0.1520 ca         1 5J4      -0.137000
      6 C6          -1.9690     1.1960     0.1280 ca         1 5J4      -0.147000
      7 C8           1.6380    -0.0440     0.1380 cc         1 5J4       0.324200
      8 C10          3.0860    -0.1260     0.0820 cc         1 5J4       0.418100
      9 C12          5.4580     0.2710    -0.0880 cc         1 5J4      -0.390000
     10 C13          5.0750    -1.0240     0.1330 cd         1 5J4       0.534300
     11 N7           0.8760    -1.0670     0.3060 nd         1 5J4      -0.462100
     12 S9           0.8190     1.4980    -0.0230 ss         1 5J4       0.028800
     13 S11          4.0680     1.2610    -0.1840 ss         1 5J4       0.030600
     14 N14          3.7450    -1.2380     0.2270 nd         1 5J4      -0.598000
     15 N15         -4.3250     0.8350     0.2810 nu         1 5J4      -0.947000
     16 C16         -5.4540     0.1600    -0.0080 cc         1 5J4       0.280000
     17 C17         -6.7780     0.3970     0.0820 cc         1 5J4      -0.228000
     18 C18         -7.0110    -0.9190    -0.6760 cd         1 5J4      -0.063000
     19 C19         -5.7080    -1.1850    -0.7590 cd         1 5J4      -0.228000
     20 O20          5.8570    -2.0970     0.2690 oh         1 5J4      -0.613300
     21 H1          -3.6340    -1.7220     0.6830 ha         1 5J4       0.135000
     22 H2          -1.3580    -2.6240     0.6430 ha         1 5J4       0.139000
     23 H3          -2.1390     2.2530    -0.0240 ha         1 5J4       0.127000
     24 H5           6.4520     0.6750    -0.2010 h4         1 5J4       0.166000
     25 H7          -4.4260     1.8150     0.5030 hn         1 5J4       0.500000
     26 H9          -7.3990     1.2130     0.4120 ha         1 5J4       0.149500
     27 H11         -7.8990    -1.4290    -1.0240 ha         1 5J4       0.139000
     28 H13         -5.0870    -1.9450    -1.2060 ha         1 5J4       0.149500
     29 H17          6.7860    -1.8510     0.1980 ho         1 5J4       0.475000
@<TRIPOS>BOND
     1     1     2 ar  
     2     1     6 ar  
     3     1    15 1   
     4     2     3 ar  
     5     2    21 1   
     6     3     4 ar  
     7     3    22 1   
     8     4     5 ar  
     9     4    11 1   
    10     5     6 ar  
    11     5    12 1   
    12     6    23 1   
    13     7     8 1   
    14     7    11 2   
    15     7    12 1   
    16     8    13 1   
    17     8    14 2   
    18     9    10 2   
    19     9    13 1   
    20     9    24 1   
    21    10    14 1   
    22    10    20 1   
    23    15    16 1   
    24    15    25 1   
    25    16    17 1   
    26    16    19 2   
    27    17    18 2   
    28    17    26 1   
    29    18    19 1   
    30    18    27 1   
    31    19    28 1   
    32    20    29 1   
@<TRIPOS>SUBSTRUCTURE
     1 5J4         1 TEMP              0 ****  ****    0 ROOT
