@<TRIPOS>MOLECULE
5J4
   29    32     1     0     0
SMALL
No Charge or Current Charge


@<TRIPOS>ATOM
      1 C1          -3.0160     0.1250     0.1130 ca         1 5J4       0.336000
      2 C2          -2.7820    -1.2560     0.2820 ca         1 5J4      -0.154000
      3 C3          -1.4650    -1.7580     0.3400 ca         1 5J4      -0.013000
      4 C4          -0.3830    -0.8700     0.2300 ca         1 5J4       0.052400
      5 C5          -0.6180     0.4780     0.0720 ca         1 5J4      -0.137000
      6 C6          -1.9190     1.0020     0.0130 ca         1 5J4      -0.147000
      7 C8           1.7160    -0.1600     0.1420 cc         1 5J4       0.324200
      8 C10          3.1680    -0.1720     0.1410 cc         1 5J4       0.418100
      9 C12          5.5350     0.4250     0.0650 cc         1 5J4      -0.390000
     10 C13          5.2490    -0.8980     0.2220 cd         1 5J4       0.534300
     11 N7           0.9480    -1.2620     0.2740 nd         1 5J4      -0.462100
     12 S9           0.8670     1.4020    -0.0400 ss         1 5J4       0.028800
     13 S11          4.0580     1.3350    -0.0390 ss         1 5J4       0.030600
     14 N14          3.9300    -1.2620     0.2680 nd         1 5J4      -0.598000
     15 N15         -4.3100     0.6460     0.0590 nu         1 5J4      -0.947000
     16 C16         -5.5410     0.0690    -0.1060 cc         1 5J4       0.280000
     17 C17         -6.8290     0.6340     0.0130 cc         1 5J4      -0.228000
     18 C18         -7.3910    -0.5630    -0.3690 cd         1 5J4      -0.063000
     19 C19         -6.0730    -1.1280    -0.4980 cd         1 5J4      -0.228000
     20 O20          6.1380    -1.8820     0.3360 oh         1 5J4      -0.613300
     21 H1          -3.6140    -1.9440     0.3820 ha         1 5J4       0.135000
     22 H2          -1.2870    -2.8230     0.4710 ha         1 5J4       0.139000
     23 H3          -2.0750     2.0700    -0.1140 ha         1 5J4       0.127000
     24 H5           6.4940     0.9210     0.0050 h4         1 5J4       0.166000
     25 H7          -4.3550     1.6620     0.1540 hn         1 5J4       0.500000
     26 H9          -7.2030     1.6160     0.2800 ha         1 5J4       0.149500
     27 H11         -8.4050    -0.9180    -0.5310 ha         1 5J4       0.139000
     28 H13         -5.6690    -2.0850    -0.8060 ha         1 5J4       0.149500
     29 H17          7.0070    -1.4350     0.2820 ho         1 5J4       0.475000
@<TRIPOS>BOND
     1     1     2 ar  
     2     1     6 ar  
     3     1    15 1   
     4     2     3 ar  
     5     2    21 1   
     6     3     4 ar  
     7     3    22 1   
     8     4     5 ar  
     9     4    11 1   
    10     5     6 ar  
    11     5    12 1   
    12     6    23 1   
    13     7     8 1   
    14     7    11 2   
    15     7    12 1   
    16     8    13 1   
    17     8    14 2   
    18     9    10 2   
    19     9    13 1   
    20     9    24 1   
    21    10    14 1   
    22    10    20 1   
    23    15    16 1   
    24    15    25 1   
    25    16    17 1   
    26    16    19 2   
    27    17    18 2   
    28    17    26 1   
    29    18    19 1   
    30    18    27 1   
    31    19    28 1   
    32    20    29 1   
@<TRIPOS>SUBSTRUCTURE
     1 5J4         1 TEMP              0 ****  ****    0 ROOT
