@<TRIPOS>MOLECULE
5J5
   37    38     1     0     0
SMALL
No Charge or Current Charge


@<TRIPOS>ATOM
      1 O5          -4.0290    -2.6890     1.2100 o          1 5J5      -0.692533
      2 S1          -3.4720    -2.4460    -0.1280 s6         1 5J5       1.271100
      3 O4          -2.4120    -3.3670    -0.5610 o          1 5J5      -0.692533
      4 O6          -4.4460    -2.0450    -1.1520 o          1 5J5      -0.692533
      5 C13         -2.5490    -0.8640     0.1600 ca         1 5J5      -0.293500
      6 C2          -3.2210     0.3780     0.3010 ca         1 5J5       0.070000
      7 N           -4.6350     0.4270     0.1750 ns         1 5J5      -0.158000
      8 C           -5.5760     1.3570     0.5900 c          1 5J5       0.609100
      9 C1          -7.0120     1.0100     0.1580 c3         1 5J5       0.030600
     10 Cl          -8.2900     2.2210     0.6720 cl         1 5J5      -0.271000
     11 O           -5.3050     2.3540     1.2550 o          1 5J5      -0.587100
     12 C12         -1.1400    -0.9070     0.2850 ca         1 5J5       0.040000
     13 C5          -0.3980     0.2630     0.5220 ca         1 5J5       0.022400
     14 C4          -1.0650     1.4910     0.6410 ca         1 5J5      -0.048000
     15 C3          -2.4630     1.5480     0.5290 ca         1 5J5      -0.182000
     16 N1           1.0030     0.2040     0.6480 ne         1 5J5      -0.193400
     17 N2           1.6580     0.3210    -0.4290 nf         1 5J5      -0.227400
     18 C6           3.0660     0.2630    -0.3050 ca         1 5J5       0.089400
     19 C11          3.8070     1.4390    -0.0930 ca         1 5J5      -0.113000
     20 C10          5.2070     1.3840     0.0230 ca         1 5J5      -0.041500
     21 C9           5.8850     0.1490    -0.0790 ca         1 5J5      -0.212500
     22 S            7.7330     0.0730     0.0850 s6         1 5J5       1.267100
     23 O3           8.1480     1.3870    -0.4300 o          1 5J5      -0.699533
     24 O2           7.8830    -0.1170     1.5360 o          1 5J5      -0.699533
     25 O1           8.0740    -1.0910    -0.7480 o          1 5J5      -0.699533
     26 C8           5.1350    -1.0290    -0.2880 ca         1 5J5      -0.041500
     27 C7           3.7350    -0.9700    -0.4040 ca         1 5J5      -0.113000
     28 H1          -5.0210    -0.3590    -0.3350 hn         1 5J5       0.213000
     29 H2          -7.0380     0.9370    -0.9360 h1         1 5J5       0.088700
     30 H3          -7.2790     0.0360     0.5840 h1         1 5J5       0.088700
     31 H4          -0.6050    -1.8500     0.2040 ha         1 5J5       0.148000
     32 H5          -0.4980     2.4020     0.8190 ha         1 5J5       0.120000
     33 H6          -2.9430     2.5190     0.6080 ha         1 5J5       0.127000
     34 H7           3.2960     2.3950    -0.0160 ha         1 5J5       0.112000
     35 H8           5.7630     2.3030     0.1940 ha         1 5J5       0.125500
     36 H9           5.6350    -1.9930    -0.3600 ha         1 5J5       0.125500
     37 H10          3.1680    -1.8830    -0.5680 ha         1 5J5       0.112000
@<TRIPOS>BOND
     1     1     2 1   
     2     2     3 1   
     3     2     4 1   
     4     2     5 1   
     5     5     6 ar  
     6     5    12 ar  
     7     6     7 1   
     8     6    15 ar  
     9     7     8 1   
    10     7    28 1   
    11     8     9 1   
    12     8    11 2   
    13     9    10 1   
    14     9    29 1   
    15     9    30 1   
    16    12    13 ar  
    17    12    31 1   
    18    13    14 ar  
    19    13    16 1   
    20    14    15 ar  
    21    14    32 1   
    22    15    33 1   
    23    16    17 2   
    24    17    18 1   
    25    18    19 ar  
    26    18    27 ar  
    27    19    20 ar  
    28    19    34 1   
    29    20    21 ar  
    30    20    35 1   
    31    21    22 1   
    32    21    26 ar  
    33    22    23 1   
    34    22    24 1   
    35    22    25 1   
    36    26    27 ar  
    37    26    36 1   
    38    27    37 1   
@<TRIPOS>SUBSTRUCTURE
     1 5J5         1 TEMP              0 ****  ****    0 ROOT
