@<TRIPOS>MOLECULE
5J5
   37    38     1     0     0
SMALL
abcg2


@<TRIPOS>ATOM
      1 O5          -3.8750    -2.7120     1.4480 o          1 5J5      -0.692533
      2 S1          -3.5790    -2.4910     0.0280 s6         1 5J5       1.271100
      3 O4          -2.7320    -3.5230    -0.5790 o          1 5J5      -0.692533
      4 O6          -4.7910    -2.1910    -0.7740 o          1 5J5      -0.692533
      5 C13         -2.6140    -0.9720    -0.0030 ca         1 5J5      -0.293500
      6 C2          -3.2130     0.2940     0.1270 ca         1 5J5       0.070000
      7 N           -4.6010     0.3760     0.1160 ns         1 5J5      -0.158000
      8 C           -5.3930     1.4070     0.5050 c          1 5J5       0.609100
      9 C1          -6.8660     1.0360     0.4270 c3         1 5J5       0.030600
     10 CL          -7.8810     2.4860     0.3070 cl         1 5J5      -0.271000
     11 O           -5.0100     2.4820     0.9080 o          1 5J5      -0.587100
     12 C12         -1.2370    -1.0830    -0.0580 ca         1 5J5       0.040000
     13 C5          -0.4210     0.0390     0.0330 ca         1 5J5       0.022400
     14 C4          -1.0130     1.2950     0.1700 ca         1 5J5      -0.048000
     15 C3          -2.3850     1.4210     0.2090 ca         1 5J5      -0.182000
     16 N1           0.9560    -0.2070    -0.0260 ne         1 5J5      -0.193400
     17 N2           1.6830     0.7860     0.1140 nf         1 5J5      -0.227400
     18 C6           3.0640     0.5270     0.0550 ca         1 5J5       0.089400
     19 C11          3.8920     1.6280     0.2590 ca         1 5J5      -0.113000
     20 C10          5.2690     1.4870     0.2290 ca         1 5J5      -0.041500
     21 C9           5.8270     0.2380    -0.0100 ca         1 5J5      -0.212500
     22 S            7.6070     0.0390     0.0390 s6         1 5J5       1.267100
     23 O3           8.1570     1.2620    -0.5690 o          1 5J5      -0.699533
     24 O2           7.9180    -0.0890     1.4730 o          1 5J5      -0.699533
     25 O1           7.8900    -1.1820    -0.7330 o          1 5J5      -0.699533
     26 C8           5.0050    -0.8650    -0.2210 ca         1 5J5      -0.041500
     27 C7           3.6300    -0.7250    -0.1910 ca         1 5J5      -0.113000
     28 H1          -5.0550    -0.4710    -0.2300 hn         1 5J5       0.213000
     29 H2          -7.0810     0.3970    -0.4270 h1         1 5J5       0.088700
     30 H3          -7.1470     0.4990     1.3340 h1         1 5J5       0.088700
     31 H4          -0.7710    -2.0530    -0.1700 ha         1 5J5       0.148000
     32 H5          -0.3970     2.1810     0.2340 ha         1 5J5       0.120000
     33 H6          -2.8140     2.4060     0.2960 ha         1 5J5       0.127000
     34 H7           3.4440     2.5970     0.4430 ha         1 5J5       0.112000
     35 H8           5.9000     2.3520     0.3840 ha         1 5J5       0.125500
     36 H9           5.4370    -1.8370    -0.4200 ha         1 5J5       0.125500
     37 H10          2.9960    -1.5850    -0.3600 ha         1 5J5       0.112000
@<TRIPOS>BOND
     1     1     2 1   
     2     2     3 1   
     3     2     4 1   
     4     2     5 1   
     5     5     6 ar  
     6     5    12 ar  
     7     6     7 1   
     8     6    15 ar  
     9     7     8 1   
    10     7    28 1   
    11     8     9 1   
    12     8    11 2   
    13     9    10 1   
    14     9    29 1   
    15     9    30 1   
    16    12    13 ar  
    17    12    31 1   
    18    13    14 ar  
    19    13    16 1   
    20    14    15 ar  
    21    14    32 1   
    22    15    33 1   
    23    16    17 2   
    24    17    18 1   
    25    18    19 ar  
    26    18    27 ar  
    27    19    20 ar  
    28    19    34 1   
    29    20    21 ar  
    30    20    35 1   
    31    21    22 1   
    32    21    26 ar  
    33    22    23 1   
    34    22    24 1   
    35    22    25 1   
    36    26    27 ar  
    37    26    36 1   
    38    27    37 1   
@<TRIPOS>SUBSTRUCTURE
     1 5J5         1 TEMP              0 ****  ****    0 ROOT
