@<TRIPOS>MOLECULE
5J6
   48    51     1     0     0
SMALL
No Charge or Current Charge


@<TRIPOS>ATOM
      1 F1          -5.7480    -2.1810    -0.5050 f          1 5J6      -0.171000
      2 C27         -4.5340    -1.6470    -0.2480 ca         1 5J6       0.188000
      3 C26         -3.9280    -0.8060    -1.1910 ca         1 5J6      -0.130000
      4 C25         -2.6650    -0.2470    -0.9300 ca         1 5J6       0.048100
      5 Br1         -1.8850     0.8590    -2.2920 br         1 5J6      -0.068100
      6 C28         -3.8850    -1.9410     0.9590 ca         1 5J6      -0.146000
      7 C29         -2.6230    -1.3870     1.2260 ca         1 5J6      -0.058000
      8 C24         -1.9920    -0.5300     0.2890 cp         1 5J6      -0.151500
      9 C6          -0.6500     0.0480     0.5960 cp         1 5J6       0.213500
     10 N5          -0.5960     1.3850     0.7530 nb         1 5J6      -0.175000
     11 C4           0.5850     1.9540     1.0910 ca         1 5J6       0.122000
     12 C15          0.6150     3.4220     1.2450 cc         1 5J6       0.339400
     13 S19         -0.8200     4.3840     0.9580 ss         1 5J6       0.084600
     14 C18          0.1230     5.7930     1.3440 cc         1 5J6      -0.289000
     15 C17          1.4200     5.4620     1.6540 cd         1 5J6       0.268900
     16 N16          1.7040     4.1050     1.5980 nd         1 5J6      -0.592000
     17 N3           1.7400     1.2710     1.2890 nb         1 5J6      -0.140000
     18 C7           0.5150    -0.7250     0.7980 ca         1 5J6      -0.195600
     19 C20          0.4040    -2.1970     0.5780 c          1 5J6       0.642700
     20 O22          0.8050    -2.9260     1.6680 os         1 5J6      -0.431100
     21 C23          0.7740    -4.3600     1.5680 c3         1 5J6       0.150900
     22 O21         -0.0160    -2.6900    -0.4610 o          1 5J6      -0.469000
     23 C2           1.7120    -0.0700     1.1440 ca         1 5J6       0.160300
     24 C1           3.0440    -0.8070     1.3100 c3         1 5J6       0.109500
     25 N9           3.4520    -1.5990     0.1170 n3         1 5J6      -0.738600
     26 C14          3.6530    -0.7720    -1.1160 c6         1 5J6       0.130300
     27 C13          4.0490    -1.6520    -2.3380 c6         1 5J6       0.151100
     28 O12          5.2180    -2.4500    -2.0280 os         1 5J6      -0.447000
     29 C11          5.0160    -3.3130    -0.8820 c6         1 5J6       0.151100
     30 C10          4.6410    -2.4690     0.3730 c6         1 5J6       0.130300
     31 H1          -4.4380    -0.5920    -2.1260 ha         1 5J6       0.150000
     32 H2          -4.3620    -2.5950     1.6850 ha         1 5J6       0.139000
     33 H3          -2.1280    -1.6160     2.1690 ha         1 5J6       0.127000
     34 H4          -0.3350     6.7720     1.3180 h4         1 5J6       0.162000
     35 H5           2.2010     6.1610     1.9280 h4         1 5J6       0.045100
     36 H6           1.1190    -4.8150     2.5050 h1         1 5J6       0.048700
     37 H7          -0.2460    -4.7170     1.3710 h1         1 5J6       0.048700
     38 H8           1.4280    -4.7090     0.7590 h1         1 5J6       0.048700
     39 H9           3.8280    -0.0780     1.5590 h1         1 5J6       0.069200
     40 H10          2.9500    -1.4670     2.1830 h1         1 5J6       0.069200
     41 H12          2.7340    -0.2220    -1.3670 h1         1 5J6       0.045450
     42 H13          4.4410    -0.0230    -0.9500 h1         1 5J6       0.045450
     43 H14          3.2160    -2.3180    -2.6050 h1         1 5J6       0.055450
     44 H15          4.2680    -1.0130    -3.2050 h1         1 5J6       0.055450
     45 H16          4.2120    -4.0300    -1.1040 h1         1 5J6       0.055450
     46 H17          5.9370    -3.8800    -0.6910 h1         1 5J6       0.055450
     47 H18          5.5100    -1.8560     0.6570 h1         1 5J6       0.045450
     48 H19          4.4410    -3.1530     1.2100 h1         1 5J6       0.045450
@<TRIPOS>BOND
     1     1     2 1   
     2     2     3 ar  
     3     2     6 ar  
     4     3     4 ar  
     5     3    31 1   
     6     4     5 1   
     7     4     8 ar  
     8     6     7 ar  
     9     6    32 1   
    10     7     8 ar  
    11     7    33 1   
    12     8     9 1   
    13     9    10 ar  
    14     9    18 ar  
    15    10    11 ar  
    16    11    12 1   
    17    11    17 ar  
    18    12    13 1   
    19    12    16 2   
    20    13    14 1   
    21    14    15 2   
    22    14    34 1   
    23    15    16 1   
    24    15    35 1   
    25    17    23 ar  
    26    18    19 1   
    27    18    23 ar  
    28    19    20 1   
    29    19    22 2   
    30    20    21 1   
    31    21    36 1   
    32    21    37 1   
    33    21    38 1   
    34    23    24 1   
    35    24    25 1   
    36    24    39 1   
    37    24    40 1   
    38    25    26 1   
    39    25    30 1   
    40    26    27 1   
    41    26    41 1   
    42    26    42 1   
    43    27    28 1   
    44    27    43 1   
    45    27    44 1   
    46    28    29 1   
    47    29    30 1   
    48    29    45 1   
    49    29    46 1   
    50    30    47 1   
    51    30    48 1   
@<TRIPOS>SUBSTRUCTURE
     1 5J6         1 TEMP              0 ****  ****    0 ROOT
