@<TRIPOS>MOLECULE
5J6
   48    51     1     0     0
SMALL
bcc


@<TRIPOS>ATOM
      1 F1          -5.3020    -2.2830    -0.8080 f          1 5J6      -0.135900
      2 C27         -4.1460    -1.7050    -0.4650 ca         1 5J6       0.152900
      3 C26         -3.3860    -1.1160    -1.4590 ca         1 5J6      -0.148000
      4 C25         -2.1890    -0.5220    -1.0950 ca         1 5J6       0.048100
      5 BR1         -1.1190     0.2590    -2.4300 br         1 5J6      -0.068100
      6 C28         -3.7540    -1.7210     0.8580 ca         1 5J6      -0.164000
      7 C29         -2.5510    -1.1180     1.1920 ca         1 5J6      -0.076000
      8 C24         -1.7560    -0.5130     0.2270 cp         1 5J6      -0.151500
      9 C6          -0.4780     0.1270     0.6190 cp         1 5J6       0.541800
     10 N5          -0.5040     1.4330     0.8430 nb         1 5J6      -0.701000
     11 C4           0.6330     2.0070     1.2060 ca         1 5J6       0.648000
     12 C15          0.5650     3.4450     1.4620 cc         1 5J6       0.339400
     13 S19         -0.9330     4.2800     1.2820 ss         1 5J6      -0.060300
     14 C18         -0.1460     5.7260     1.7260 cc         1 5J6      -0.227400
     15 C17          1.1720     5.4820     1.9760 cd         1 5J6       0.334200
     16 N16          1.5630     4.1910     1.8230 nd         1 5J6      -0.592000
     17 N3           1.8050     1.4020     1.3340 nb         1 5J6      -0.666000
     18 C7           0.6900    -0.6110     0.7660 ca         1 5J6      -0.326200
     19 C20          0.6840    -2.0830     0.5260 c          1 5J6       0.691700
     20 O22          1.0590    -2.7400     1.6100 os         1 5J6      -0.407900
     21 C23          1.1310    -4.1630     1.5180 c3         1 5J6       0.127700
     22 O21          0.2860    -2.5910    -0.4890 o          1 5J6      -0.518000
     23 C2           1.8430     0.0980     1.1130 ca         1 5J6       0.488600
     24 C1           3.1800    -0.5850     1.1880 c3         1 5J6       0.109500
     25 N9           3.3110    -1.5260     0.1030 n3         1 5J6      -0.738600
     26 C14          3.4810    -0.8750    -1.1850 c6         1 5J6       0.130300
     27 C13          3.5070    -1.9180    -2.2830 c6         1 5J6       0.127900
     28 O12          4.5290    -2.8670    -2.0700 os         1 5J6      -0.400600
     29 C11          4.3680    -3.5050    -0.8230 c6         1 5J6       0.127900
     30 C10          4.3590    -2.5070     0.3190 c6         1 5J6       0.130300
     31 H1          -3.7260    -1.1310    -2.4860 ha         1 5J6       0.168000
     32 H2          -4.3700    -2.1900     1.6130 ha         1 5J6       0.157000
     33 H3          -2.2270    -1.1180     2.2250 ha         1 5J6       0.145000
     34 H4          -0.6700     6.6670     1.7820 h4         1 5J6       0.180000
     35 H5           1.8910     6.2310     2.2750 h4         1 5J6       0.045100
     36 H6           1.4680    -4.5090     2.4900 h1         1 5J6       0.048700
     37 H7           0.1580    -4.5980     1.2930 h1         1 5J6       0.048700
     38 H8           1.8470    -4.4700     0.7560 h1         1 5J6       0.048700
     39 H9           3.9660     0.1830     1.2060 h1         1 5J6       0.069200
     40 H10          3.2410    -1.1260     2.1380 h1         1 5J6       0.069200
     41 H12          2.6480    -0.1920    -1.3720 h1         1 5J6       0.045450
     42 H13          4.4040    -0.2720    -1.2120 h1         1 5J6       0.045450
     43 H14          2.5270    -2.4130    -2.3300 h1         1 5J6       0.055450
     44 H15          3.6950    -1.4440    -3.2480 h1         1 5J6       0.055450
     45 H16          3.4340    -4.0850    -0.8090 h1         1 5J6       0.055450
     46 H17          5.1980    -4.2030    -0.7020 h1         1 5J6       0.055450
     47 H18          5.3500    -2.0340     0.4050 h1         1 5J6       0.045450
     48 H19          4.1700    -3.0350     1.2570 h1         1 5J6       0.045450
@<TRIPOS>BOND
     1     1     2 1   
     2     2     3 ar  
     3     2     6 ar  
     4     3     4 ar  
     5     3    31 1   
     6     4     5 1   
     7     4     8 ar  
     8     6     7 ar  
     9     6    32 1   
    10     7     8 ar  
    11     7    33 1   
    12     8     9 1   
    13     9    10 ar  
    14     9    18 ar  
    15    10    11 ar  
    16    11    12 1   
    17    11    17 ar  
    18    12    13 1   
    19    12    16 2   
    20    13    14 1   
    21    14    15 2   
    22    14    34 1   
    23    15    16 1   
    24    15    35 1   
    25    17    23 ar  
    26    18    19 1   
    27    18    23 ar  
    28    19    20 1   
    29    19    22 2   
    30    20    21 1   
    31    21    36 1   
    32    21    37 1   
    33    21    38 1   
    34    23    24 1   
    35    24    25 1   
    36    24    39 1   
    37    24    40 1   
    38    25    26 1   
    39    25    30 1   
    40    26    27 1   
    41    26    41 1   
    42    26    42 1   
    43    27    28 1   
    44    27    43 1   
    45    27    44 1   
    46    28    29 1   
    47    29    30 1   
    48    29    45 1   
    49    29    46 1   
    50    30    47 1   
    51    30    48 1   
@<TRIPOS>SUBSTRUCTURE
     1 5J6         1 TEMP              0 ****  ****    0 ROOT
