@<TRIPOS>MOLECULE
5J7
   92    97     1     0     0
SMALL
abcg2


@<TRIPOS>ATOM
      1 C01          0.7200     2.7270     1.5800 ca         1 5J7      -0.141000
      2 C02          0.3650     3.8850     2.2570 ca         1 5J7       0.112100
      3 O03         -0.1590     3.7730     3.4930 oh         1 5J7      -0.540600
      4 C05          0.5510     5.1310     1.6610 ca         1 5J7       0.039100
      5 O06          0.1830     6.2200     2.3690 oh         1 5J7      -0.551100
      6 C08          1.1060     5.2060     0.3830 ca         1 5J7       0.112100
      7 O09          1.2510     6.4500    -0.1190 oh         1 5J7      -0.540600
      8 C11          1.4670     4.0530    -0.2950 ca         1 5J7      -0.141000
      9 C12          1.2550     2.8080     0.2990 ca         1 5J7      -0.027800
     10 C13          1.5950     1.5970    -0.4530 cc         1 5J7       0.167900
     11 O14          2.7890     1.6980    -1.0640 os         1 5J7      -0.209200
     12 C15          3.3000     0.6920    -1.7950 ca         1 5J7       0.244100
     13 C16          4.5520     0.8870    -2.3520 ca         1 5J7      -0.306000
     14 C17          5.0970    -0.1540    -3.0950 ca         1 5J7       0.245100
     15 O18          6.3060    -0.0540    -3.6610 oh         1 5J7      -0.516100
     16 C20          4.4110    -1.3560    -3.2850 ca         1 5J7      -0.238000
     17 C21          3.1630    -1.5280    -2.7210 ca         1 5J7       0.285100
     18 O22          2.5200    -2.6790    -2.8900 oh         1 5J7      -0.533100
     19 C24          2.5750    -0.4850    -1.9630 ca         1 5J7      -0.376600
     20 C25          1.2770    -0.6380    -1.3590 c          1 5J7       0.600900
     21 O26          0.5950    -1.6610    -1.5160 o          1 5J7      -0.585100
     22 C27          0.8240     0.4870    -0.5610 cd         1 5J7      -0.045100
     23 O28         -0.3280     0.4130     0.1460 os         1 5J7      -0.379100
     24 C29         -1.5500     0.1760    -0.5450 c6         1 5J7       0.378300
     25 O30         -1.7420     1.0550    -1.5930 os         1 5J7      -0.453000
     26 C31         -1.9910     2.4240    -1.2680 c6         1 5J7       0.139300
     27 C32         -2.2000     3.1510    -2.5780 c3         1 5J7      -0.089100
     28 C33         -3.1900     2.5330    -0.3220 c6         1 5J7       0.104300
     29 O34         -3.3780     3.8640     0.1020 oh         1 5J7      -0.727000
     30 C36         -2.9240     1.6960     0.9200 c6         1 5J7       0.165300
     31 O37         -4.0010     1.6970     1.8190 oh         1 5J7      -0.713000
     32 C39         -2.6430     0.2560     0.5220 c6         1 5J7       0.156300
     33 O40         -3.8170    -0.3210    -0.0240 os         1 5J7      -0.435000
     34 C41         -4.2460    -1.4640     0.6160 c6         1 5J7       0.356300
     35 O42         -3.3350    -2.4900     0.3290 os         1 5J7      -0.474000
     36 C43         -5.6230    -1.8550     0.0940 c6         1 5J7       0.119300
     37 O44         -6.6030    -0.9070     0.4350 oh         1 5J7      -0.721000
     38 C46         -6.0240    -3.1850     0.7320 c6         1 5J7       0.138300
     39 O47         -7.2010    -3.7080     0.1660 oh         1 5J7      -0.664000
     40 C49         -4.9310    -4.2420     0.5640 c6         1 5J7       0.147300
     41 O50         -5.2070    -5.3970     1.3130 oh         1 5J7      -0.716000
     42 C52         -3.6030    -3.6670     1.0510 c6         1 5J7       0.175300
     43 C53         -2.4280    -4.5990     0.8420 c3         1 5J7       0.182600
     44 O54         -1.2840    -3.8730     1.2800 os         1 5J7      -0.445100
     45 C55         -0.0730    -4.2690     0.9000 c          1 5J7       0.608300
     46 O56          0.1420    -5.3330     0.3640 o          1 5J7      -0.493000
     47 C57          0.9140    -3.2260     1.1890 ce         1 5J7      -0.261200
     48 C58          2.1920    -3.3520     0.8130 cf         1 5J7      -0.079200
     49 C59          3.2050    -2.3110     0.8890 ca         1 5J7      -0.072800
     50 C60          4.4040    -2.4970     0.1950 ca         1 5J7      -0.099000
     51 C61          5.3600    -1.5010     0.1290 ca         1 5J7       0.114100
     52 O62          6.4940    -1.7200    -0.5670 oh         1 5J7      -0.527100
     53 C64          5.1310    -0.2870     0.7900 ca         1 5J7       0.056100
     54 O65          6.1050     0.6390     0.6890 oh         1 5J7      -0.557100
     55 C67          3.9540    -0.1010     1.5020 ca         1 5J7      -0.171000
     56 C68          2.9990    -1.1000     1.5510 ca         1 5J7      -0.089000
     57 H011         0.5690     1.7740     2.0670 ha         1 5J7       0.139500
     58 H04         -0.3720     4.6410     3.8550 ho         1 5J7       0.484000
     59 H07          0.2980     7.0270     1.8530 ho         1 5J7       0.495000
     60 H10          1.6140     6.4210    -1.0120 ho         1 5J7       0.484000
     61 H111         1.8780     4.1310    -1.2940 ha         1 5J7       0.139500
     62 H161         5.0860     1.8150    -2.1950 ha         1 5J7       0.134000
     63 H19          6.6860     0.8170    -3.5010 ho         1 5J7       0.471000
     64 H201         4.8650    -2.1550    -3.8580 ha         1 5J7       0.156000
     65 H23          1.6540    -2.6030    -2.4190 ho         1 5J7       0.525000
     66 H291        -1.5430    -0.8230    -0.9810 h2         1 5J7       0.130700
     67 H311        -1.1230     2.8570    -0.7550 h1         1 5J7       0.055700
     68 H322        -3.0690     2.7660    -3.1130 hc         1 5J7       0.045367
     69 H321        -2.3490     4.2170    -2.4070 hc         1 5J7       0.045367
     70 H323        -1.3250     3.0470    -3.2210 hc         1 5J7       0.045367
     71 H331        -4.0880     2.1540    -0.8300 h1         1 5J7       0.062700
     72 H35         -3.8940     4.3320    -0.5610 ho         1 5J7       0.510000
     73 H361        -2.0130     2.0890     1.3970 h1         1 5J7       0.062700
     74 H38         -4.2060     2.6140     2.0310 ho         1 5J7       0.521000
     75 H391        -2.3120    -0.3110     1.4000 h1         1 5J7       0.089700
     76 H411        -4.2950    -1.3070     1.7090 h2         1 5J7       0.047700
     77 H431        -5.5490    -1.9900    -0.9960 h1         1 5J7       0.067700
     78 H45         -6.3830    -0.0740     0.0040 ho         1 5J7       0.526000
     79 H461        -6.1550    -3.0130     1.8120 h1         1 5J7       0.052700
     80 H48         -7.9420    -3.1490     0.4200 ho         1 5J7       0.466000
     81 H491        -4.8350    -4.4750    -0.5080 h1         1 5J7       0.060700
     82 H51         -6.0340    -5.7750     0.9980 ho         1 5J7       0.526000
     83 H521        -3.6910    -3.4450     2.1270 h1         1 5J7       0.059700
     84 H531        -2.5540    -5.5140     1.4230 h1         1 5J7       0.068200
     85 H532        -2.3310    -4.8700    -0.2130 h1         1 5J7       0.068200
     86 H571         0.5340    -2.3040     1.6090 ha         1 5J7       0.200000
     87 H581         2.5070    -4.2840     0.3530 ha         1 5J7       0.197000
     88 H601         4.5860    -3.4280    -0.3310 ha         1 5J7       0.140000
     89 H63          7.0200    -0.9140    -0.6150 ho         1 5J7       0.477000
     90 H66          5.8440     1.4640     1.1140 ho         1 5J7       0.476000
     91 H671         3.7830     0.8360     2.0200 ha         1 5J7       0.118000
     92 H681         2.0900    -0.9220     2.1090 ha         1 5J7       0.124000
@<TRIPOS>BOND
     1     1     2 ar  
     2     1     9 ar  
     3     1    57 1   
     4     2     3 1   
     5     2     4 ar  
     6     3    58 1   
     7     4     5 1   
     8     4     6 ar  
     9     5    59 1   
    10     6     7 1   
    11     6     8 ar  
    12     7    60 1   
    13     8     9 ar  
    14     8    61 1   
    15     9    10 1   
    16    10    11 1   
    17    10    22 2   
    18    11    12 1   
    19    12    13 ar  
    20    12    19 ar  
    21    13    14 ar  
    22    13    62 1   
    23    14    15 1   
    24    14    16 ar  
    25    15    63 1   
    26    16    17 ar  
    27    16    64 1   
    28    17    18 1   
    29    17    19 ar  
    30    18    65 1   
    31    19    20 1   
    32    20    21 2   
    33    20    22 1   
    34    22    23 1   
    35    23    24 1   
    36    24    25 1   
    37    24    32 1   
    38    24    66 1   
    39    25    26 1   
    40    26    27 1   
    41    26    28 1   
    42    26    67 1   
    43    27    68 1   
    44    27    69 1   
    45    27    70 1   
    46    28    29 1   
    47    28    30 1   
    48    28    71 1   
    49    29    72 1   
    50    30    31 1   
    51    30    32 1   
    52    30    73 1   
    53    31    74 1   
    54    32    33 1   
    55    32    75 1   
    56    33    34 1   
    57    34    35 1   
    58    34    36 1   
    59    34    76 1   
    60    35    42 1   
    61    36    37 1   
    62    36    38 1   
    63    36    77 1   
    64    37    78 1   
    65    38    39 1   
    66    38    40 1   
    67    38    79 1   
    68    39    80 1   
    69    40    41 1   
    70    40    42 1   
    71    40    81 1   
    72    41    82 1   
    73    42    43 1   
    74    42    83 1   
    75    43    44 1   
    76    43    84 1   
    77    43    85 1   
    78    44    45 1   
    79    45    46 2   
    80    45    47 1   
    81    47    48 2   
    82    47    86 1   
    83    48    49 1   
    84    48    87 1   
    85    49    50 ar  
    86    49    56 ar  
    87    50    51 ar  
    88    50    88 1   
    89    51    52 1   
    90    51    53 ar  
    91    52    89 1   
    92    53    54 1   
    93    53    55 ar  
    94    54    90 1   
    95    55    56 ar  
    96    55    91 1   
    97    56    92 1   
@<TRIPOS>SUBSTRUCTURE
     1 5J7         1 TEMP              0 ****  ****    0 ROOT
