@<TRIPOS>MOLECULE
5J7
   92    97     1     0     0
SMALL
No Charge or Current Charge


@<TRIPOS>ATOM
      1 C01          0.8310     2.2150     1.9090 ca         1 5J7      -0.141000
      2 C02          0.6650     3.2340     2.8590 ca         1 5J7       0.112100
      3 O03          0.1760     2.9430     4.0980 oh         1 5J7      -0.540600
      4 C05          1.0040     4.5620     2.5400 ca         1 5J7       0.039100
      5 O06          0.8440     5.5610     3.4670 oh         1 5J7      -0.551100
      6 C08          1.5150     4.8650     1.2630 ca         1 5J7       0.112100
      7 O09          1.8490     6.1580     0.9570 oh         1 5J7      -0.540600
      8 C11          1.6800     3.8420     0.3110 ca         1 5J7      -0.141000
      9 C12          1.3310     2.5100     0.6220 ca         1 5J7      -0.027800
     10 C13          1.5220     1.4490    -0.3770 cc         1 5J7       0.167900
     11 O14          2.6670     1.5250    -1.1520 os         1 5J7      -0.209200
     12 C15          3.0160     0.3800    -1.8420 ca         1 5J7       0.244100
     13 C16          4.3420     0.2990    -2.2900 ca         1 5J7      -0.306000
     14 C17          4.7700    -0.7980    -3.0400 ca         1 5J7       0.245100
     15 O18          6.0580    -0.8770    -3.4630 oh         1 5J7      -0.516100
     16 C20          3.8730    -1.8140    -3.3650 ca         1 5J7      -0.238000
     17 C21          2.5450    -1.7290    -2.9430 ca         1 5J7       0.285100
     18 O22          1.6890    -2.7230    -3.2830 oh         1 5J7      -0.533100
     19 C24          2.1070    -0.6300    -2.1820 ca         1 5J7      -0.376600
     20 C25          0.7140    -0.5070    -1.7020 c          1 5J7       0.600900
     21 O26         -0.1340    -1.3140    -2.0720 o          1 5J7      -0.585100
     22 C27          0.4890     0.5850    -0.7170 cd         1 5J7      -0.045100
     23 O28         -0.7380     0.8340    -0.1130 os         1 5J7      -0.379100
     24 C29         -1.9960     0.3010    -0.5840 c6         1 5J7       0.378300
     25 O30         -2.2680     0.8370    -1.9070 os         1 5J7      -0.453000
     26 C31         -2.4390     2.2700    -1.9720 c6         1 5J7       0.139300
     27 C32         -2.6270     2.6170    -3.4710 c3         1 5J7      -0.089100
     28 C33         -3.6460     2.6980    -1.0810 c6         1 5J7       0.104300
     29 O34         -3.8600     4.1290    -1.0860 oh         1 5J7      -0.727000
     30 C36         -3.3860     2.2180     0.3730 c6         1 5J7       0.165300
     31 O37         -4.4860     2.6340     1.2050 oh         1 5J7      -0.713000
     32 C39         -3.1500     0.6770     0.4110 c6         1 5J7       0.156300
     33 O40         -4.3850    -0.0560     0.1450 os         1 5J7      -0.435000
     34 C41         -4.4930    -1.3420     0.7840 c6         1 5J7       0.356300
     35 O42         -3.4490    -2.2010     0.3080 os         1 5J7      -0.474000
     36 C43         -5.8730    -2.0040     0.4640 c6         1 5J7       0.119300
     37 O44         -6.9900    -1.1840     0.8840 oh         1 5J7      -0.721000
     38 C46         -5.9230    -3.4040     1.1460 c6         1 5J7       0.138300
     39 O47         -7.1610    -4.0670     0.8350 oh         1 5J7      -0.664000
     40 C49         -4.7020    -4.2710     0.7040 c6         1 5J7       0.147300
     41 O50         -4.7280    -5.5390     1.3860 oh         1 5J7      -0.716000
     42 C52         -3.3850    -3.4810     0.9830 c6         1 5J7       0.175300
     43 C53         -2.1050    -4.1980     0.4730 c3         1 5J7       0.182600
     44 O54         -0.9620    -3.4030     0.8530 os         1 5J7      -0.445100
     45 C55          0.2660    -3.7540     0.3750 c          1 5J7       0.608300
     46 O56          0.4890    -4.7290    -0.3290 o          1 5J7      -0.493000
     47 C57          1.2810    -2.7470     0.7700 ce         1 5J7      -0.261200
     48 C58          2.5960    -2.7710     0.4040 cf         1 5J7      -0.079200
     49 C59          3.6660    -1.8010     0.7160 ca         1 5J7      -0.072800
     50 C60          4.9630    -2.0100     0.2020 ca         1 5J7      -0.099000
     51 C61          5.9880    -1.0870     0.4650 ca         1 5J7       0.114100
     52 O62          7.2440    -1.2900    -0.0290 oh         1 5J7      -0.527100
     53 C64          5.7300     0.0590     1.2420 ca         1 5J7       0.056100
     54 O65          6.7330     0.9580     1.4930 oh         1 5J7      -0.557100
     55 C67          4.4440     0.2740     1.7600 ca         1 5J7      -0.171000
     56 C68          3.4190    -0.6540     1.5020 ca         1 5J7      -0.089000
     57 H011         0.5690     1.1940     2.1730 ha         1 5J7       0.139500
     58 H04          0.1490     3.7970     4.5870 ho         1 5J7       0.484000
     59 H07          1.1420     6.3960     3.0350 ho         1 5J7       0.495000
     60 H10          2.1890     6.1900     0.0360 ho         1 5J7       0.484000
     61 H111         2.0730     4.0770    -0.6750 ha         1 5J7       0.139500
     62 H161         5.0340     1.0980    -2.0400 ha         1 5J7       0.134000
     63 H19          6.5430    -0.1140    -3.0870 ho         1 5J7       0.471000
     64 H201         4.2040    -2.6650    -3.9520 ha         1 5J7       0.156000
     65 H23          0.8100    -2.4380    -2.9220 ho         1 5J7       0.525000
     66 H291        -1.9220    -0.7930    -0.6380 h2         1 5J7       0.130700
     67 H311        -1.5200     2.7600    -1.6160 h1         1 5J7       0.055700
     68 H322        -3.5510     2.1800    -3.8680 hc         1 5J7       0.045367
     69 H321        -2.6700     3.7010    -3.6280 hc         1 5J7       0.045367
     70 H323        -1.7910     2.2350    -4.0670 hc         1 5J7       0.045367
     71 H331        -4.5440     2.1850    -1.4590 h1         1 5J7       0.062700
     72 H35         -4.1370     4.3840    -1.9980 ho         1 5J7       0.510000
     73 H361        -2.4620     2.7040     0.7240 h1         1 5J7       0.062700
     74 H38         -4.7450     3.5070     0.8210 ho         1 5J7       0.521000
     75 H391        -2.8110     0.4280     1.4270 h1         1 5J7       0.089700
     76 H411        -4.3960    -1.2120     1.8730 h2         1 5J7       0.047700
     77 H431        -5.9140    -2.1530    -0.6260 h1         1 5J7       0.067700
     78 H45         -6.7740    -0.2610     0.6030 ho         1 5J7       0.526000
     79 H461        -5.8550    -3.2470     2.2340 h1         1 5J7       0.052700
     80 H48         -7.8400    -3.3520     0.8520 ho         1 5J7       0.466000
     81 H491        -4.7740    -4.4340    -0.3820 h1         1 5J7       0.060700
     82 H51         -5.6800    -5.8070     1.3890 ho         1 5J7       0.526000
     83 H521        -3.2780    -3.3130     2.0650 h1         1 5J7       0.059700
     84 H531        -2.0450    -5.2010     0.9170 h1         1 5J7       0.068200
     85 H532        -2.1710    -4.3030    -0.6180 h1         1 5J7       0.068200
     86 H571         0.8980    -1.9380     1.3850 ha         1 5J7       0.200000
     87 H581         2.9200    -3.6060    -0.2230 ha         1 5J7       0.197000
     88 H601         5.1790    -2.8830    -0.4080 ha         1 5J7       0.140000
     89 H63          7.7850    -0.5370     0.2970 ho         1 5J7       0.477000
     90 H66          6.3740     1.6840     2.0500 ho         1 5J7       0.476000
     91 H671         4.2290     1.1540     2.3620 ha         1 5J7       0.118000
     92 H681         2.4340    -0.4650     1.9160 ha         1 5J7       0.124000
@<TRIPOS>BOND
     1     1     2 ar  
     2     1     9 ar  
     3     1    57 1   
     4     2     3 1   
     5     2     4 ar  
     6     3    58 1   
     7     4     5 1   
     8     4     6 ar  
     9     5    59 1   
    10     6     7 1   
    11     6     8 ar  
    12     7    60 1   
    13     8     9 ar  
    14     8    61 1   
    15     9    10 1   
    16    10    11 1   
    17    10    22 2   
    18    11    12 1   
    19    12    13 ar  
    20    12    19 ar  
    21    13    14 ar  
    22    13    62 1   
    23    14    15 1   
    24    14    16 ar  
    25    15    63 1   
    26    16    17 ar  
    27    16    64 1   
    28    17    18 1   
    29    17    19 ar  
    30    18    65 1   
    31    19    20 1   
    32    20    21 2   
    33    20    22 1   
    34    22    23 1   
    35    23    24 1   
    36    24    25 1   
    37    24    32 1   
    38    24    66 1   
    39    25    26 1   
    40    26    27 1   
    41    26    28 1   
    42    26    67 1   
    43    27    68 1   
    44    27    69 1   
    45    27    70 1   
    46    28    29 1   
    47    28    30 1   
    48    28    71 1   
    49    29    72 1   
    50    30    31 1   
    51    30    32 1   
    52    30    73 1   
    53    31    74 1   
    54    32    33 1   
    55    32    75 1   
    56    33    34 1   
    57    34    35 1   
    58    34    36 1   
    59    34    76 1   
    60    35    42 1   
    61    36    37 1   
    62    36    38 1   
    63    36    77 1   
    64    37    78 1   
    65    38    39 1   
    66    38    40 1   
    67    38    79 1   
    68    39    80 1   
    69    40    41 1   
    70    40    42 1   
    71    40    81 1   
    72    41    82 1   
    73    42    43 1   
    74    42    83 1   
    75    43    44 1   
    76    43    84 1   
    77    43    85 1   
    78    44    45 1   
    79    45    46 2   
    80    45    47 1   
    81    47    48 2   
    82    47    86 1   
    83    48    49 1   
    84    48    87 1   
    85    49    50 ar  
    86    49    56 ar  
    87    50    51 ar  
    88    50    88 1   
    89    51    52 1   
    90    51    53 ar  
    91    52    89 1   
    92    53    54 1   
    93    53    55 ar  
    94    54    90 1   
    95    55    56 ar  
    96    55    91 1   
    97    56    92 1   
@<TRIPOS>SUBSTRUCTURE
     1 5J7         1 TEMP              0 ****  ****    0 ROOT
