@<TRIPOS>MOLECULE
5J9
   51    55     1     0     0
SMALL
No Charge or Current Charge


@<TRIPOS>ATOM
      1 C4          -9.0990    -9.9940    21.3930 ca         1 5J9       0.138500
      2 C14         -7.6400   -16.0780    19.3300 cc         1 5J9      -0.139000
      3 C5         -10.1240    -9.1080    21.6050 ca         1 5J9      -0.100600
      4 C6          -9.9860    -8.1690    22.6490 ca         1 5J9       0.446900
      5 C8         -10.7600   -10.3190    19.9420 cc         1 5J9       0.414700
      6 C13         -6.5100   -16.3750    20.0360 cd         1 5J9       0.158300
      7 N1          -8.8820    -8.1370    23.4130 nb         1 5J9      -0.297000
      8 N3          -7.9790    -9.9940    22.1440 nb         1 5J9      -0.216000
      9 C2T         -6.1900   -19.3390    18.6200 c          1 5J9       0.707400
     10 N3T         -5.5760   -20.0790    17.6460 nc         1 5J9      -0.771100
     11 C4T         -4.2950   -20.0340    17.5110 cd         1 5J9       0.782500
     12 N4T         -3.8090   -20.7770    16.5380 nv         1 5J9      -1.039200
     13 C5T         -3.4330   -19.2490    18.3020 cd         1 5J9      -0.489600
     14 C6T         -4.0090   -18.4900    19.2930 cc         1 5J9       0.033600
     15 N1T         -5.3880   -18.5390    19.4630 n          1 5J9      -0.316000
     16 C15         -6.0430   -17.7260    20.5180 c3         1 5J9       0.087700
     17 N12         -5.7940   -15.2180    20.2630 nd         1 5J9      -0.353000
     18 N11         -6.4320   -14.2100    19.7320 nc         1 5J9      -0.201800
     19 N10         -7.5630   -14.7190    19.1570 na         1 5J9       0.115800
     20 C3          -8.5370   -13.8640    18.4500 c5         1 5J9       0.075300
     21 C2          -9.5940   -13.1580    19.3560 c5         1 5J9       0.123300
     22 O2         -10.0320   -13.9650    20.4680 oh         1 5J9      -0.692000
     23 C7          -7.9220   -12.6300    17.6950 c5         1 5J9       0.165300
     24 C9          -8.5170   -12.3530    16.2800 c3         1 5J9       0.142600
     25 O5          -9.9590   -12.3070    16.2830 oh         1 5J9      -0.744000
     26 O4          -8.1380   -11.4690    18.5460 os         1 5J9      -0.441000
     27 C1          -8.7700   -11.8980    19.7670 c5         1 5J9       0.288300
     28 N9          -9.4970   -10.7690    20.3430 na         1 5J9      -0.305300
     29 N7         -11.1790    -9.2910    20.7050 nd         1 5J9      -0.558100
     30 C10         -7.9300    -9.0570    23.1210 ca         1 5J9       0.179900
     31 N6         -10.9420    -7.2460    22.9370 nv         1 5J9      -1.067900
     32 H1          -8.4490   -16.6950    18.9620 h4         1 5J9       0.188000
     33 H2         -11.3030   -10.7620    19.1150 h5         1 5J9       0.081800
     34 H3          -4.5130   -21.0730    15.8760 hn         1 5J9       0.502500
     35 H4          -2.9340   -20.4640    16.1380 hn         1 5J9       0.502500
     36 H6          -3.4960   -17.8280    19.9880 h4         1 5J9       0.209000
     37 H7          -6.9020   -18.2720    20.9270 h1         1 5J9       0.081200
     38 H8          -5.3410   -17.5810    21.3500 h1         1 5J9       0.081200
     39 H9          -9.0590   -14.5030    17.7280 h1         1 5J9       0.097700
     40 H10        -10.4600   -12.8590    18.7490 h1         1 5J9       0.071700
     41 H11        -10.7250   -13.4580    20.9560 ho         1 5J9       0.525000
     42 H12         -6.8390   -12.7590    17.5570 h1         1 5J9       0.099700
     43 H13         -8.1690   -13.1450    15.6020 h1         1 5J9       0.046200
     44 H14         -8.1030   -11.4050    15.9100 h1         1 5J9       0.046200
     45 H15        -10.2450   -12.0540    15.3720 ho         1 5J9       0.516000
     46 H16         -8.0020   -12.1840    20.4990 h2         1 5J9       0.129700
     47 H17         -7.0310    -9.0410    23.7360 h5         1 5J9       0.049100
     48 H18        -10.6690    -6.4300    23.4790 hn         1 5J9       0.507500
     49 H19        -11.6740    -7.1090    22.2440 hn         1 5J9       0.507500
     50 H5          -2.3630   -19.2490    18.1350 ha         1 5J9       0.203000
     51 O2T         -7.4040   -19.3870    18.7340 o          1 5J9      -0.569000
@<TRIPOS>BOND
     1     1     3 ar  
     2     1     8 ar  
     3     1    28 1   
     4     2     6 2   
     5     2    19 1   
     6     2    32 1   
     7     3     4 ar  
     8     3    29 1   
     9     4     7 ar  
    10     4    31 1   
    11     5    28 1   
    12     5    29 2   
    13     5    33 1   
    14     6    16 1   
    15     6    17 1   
    16     7    30 ar  
    17     8    30 ar  
    18     9    10 1   
    19     9    15 1   
    20     9    51 2   
    21    10    11 2   
    22    11    12 1   
    23    11    13 1   
    24    12    34 1   
    25    12    35 1   
    26    13    14 2   
    27    13    50 1   
    28    14    15 1   
    29    14    36 1   
    30    15    16 1   
    31    16    37 1   
    32    16    38 1   
    33    17    18 2   
    34    18    19 1   
    35    19    20 1   
    36    20    21 1   
    37    20    23 1   
    38    20    39 1   
    39    21    22 1   
    40    21    27 1   
    41    21    40 1   
    42    22    41 1   
    43    23    24 1   
    44    23    26 1   
    45    23    42 1   
    46    24    25 1   
    47    24    43 1   
    48    24    44 1   
    49    25    45 1   
    50    26    27 1   
    51    27    28 1   
    52    27    46 1   
    53    30    47 1   
    54    31    48 1   
    55    31    49 1   
@<TRIPOS>SUBSTRUCTURE
     1 5J9         1 TEMP              0 ****  ****    0 ROOT
