@<TRIPOS>MOLECULE
5J9
   51    55     1     0     0
SMALL
abcg2


@<TRIPOS>ATOM
      1 C4          -9.1850    -9.9230    21.4050 ca         1 5J9       0.138500
      2 C14         -7.5480   -16.1350    19.4490 cc         1 5J9      -0.139000
      3 C5         -10.1430    -8.9250    21.2360 ca         1 5J9      -0.100600
      4 C6         -10.2900    -8.0040    22.2910 ca         1 5J9       0.446900
      5 C8         -10.2160   -10.1090    19.4610 cc         1 5J9       0.414700
      6 C13         -6.3960   -16.4780    20.1210 cd         1 5J9       0.158300
      7 N1          -9.5030    -8.1530    23.3750 nb         1 5J9      -0.297000
      8 N3          -8.3960   -10.0850    22.4730 nb         1 5J9      -0.216000
      9 C2T         -6.2740   -19.2810    18.5500 c          1 5J9       0.707400
     10 N3T         -5.7970   -19.9440    17.4690 nc         1 5J9      -0.771100
     11 C4T         -4.5030   -19.9130    17.1700 cd         1 5J9       0.782500
     12 N4T         -4.0920   -20.5860    16.0850 nv         1 5J9      -1.039200
     13 C5T         -3.5560   -19.1950    17.9620 cd         1 5J9      -0.489600
     14 C6T         -4.0390   -18.5430    19.0440 cc         1 5J9       0.033600
     15 N1T         -5.3580   -18.5780    19.3580 n          1 5J9      -0.316000
     16 C15         -5.8690   -17.8190    20.5090 c3         1 5J9       0.087700
     17 N12         -5.7070   -15.3320    20.3760 nd         1 5J9      -0.353000
     18 N11         -6.3720   -14.3130    19.9020 nc         1 5J9      -0.201800
     19 N10         -7.4850   -14.7940    19.3280 na         1 5J9       0.115800
     20 C3          -8.4790   -13.9160    18.7260 c5         1 5J9       0.075300
     21 C2          -9.2700   -13.1300    19.7790 c5         1 5J9       0.123300
     22 O2          -9.4280   -13.8580    20.9730 oh         1 5J9      -0.692000
     23 C7          -7.8380   -12.8100    17.8740 c5         1 5J9       0.165300
     24 C9          -8.5940   -12.5090    16.5980 c3         1 5J9       0.142600
     25 O5          -9.9660   -12.2760    16.9050 oh         1 5J9      -0.744000
     26 O4          -7.7820   -11.6340    18.7090 os         1 5J9      -0.441000
     27 C1          -8.4420   -11.8430    19.9420 c5         1 5J9       0.288300
     28 N9          -9.2430   -10.6800    20.2570 na         1 5J9      -0.305300
     29 N7         -10.7740    -9.0590    20.0100 nd         1 5J9      -0.558100
     30 C10         -8.6210    -9.1590    23.4030 ca         1 5J9       0.179900
     31 N6         -11.1800    -7.0000    22.2650 nv         1 5J9      -1.067900
     32 H1          -8.3590   -16.7200    19.0550 h4         1 5J9       0.188000
     33 H2         -10.4420   -10.5180    18.4880 h5         1 5J9       0.081800
     34 H3          -4.7620   -21.0830    15.5210 hn         1 5J9       0.502500
     35 H4          -3.1260   -20.5840    15.8040 hn         1 5J9       0.502500
     36 H6          -3.4070   -17.9680    19.7070 h4         1 5J9       0.209000
     37 H7          -6.6410   -18.4190    20.9820 h1         1 5J9       0.081200
     38 H8          -5.0460   -17.6880    21.2090 h1         1 5J9       0.081200
     39 H9          -9.1330   -14.5520    18.1380 h1         1 5J9       0.097700
     40 H10        -10.2350   -12.8770    19.3390 h1         1 5J9       0.071700
     41 H11        -10.1590   -13.4760    21.4740 ho         1 5J9       0.525000
     42 H12         -6.8170   -13.0820    17.6070 h1         1 5J9       0.099700
     43 H13         -8.4820   -13.3630    15.9210 h1         1 5J9       0.046200
     44 H14         -8.1430   -11.6300    16.1270 h1         1 5J9       0.046200
     45 H15        -10.4380   -12.0820    16.0860 ho         1 5J9       0.516000
     46 H16         -7.7270   -11.9590    20.7590 h2         1 5J9       0.129700
     47 H17         -8.0140    -9.2250    24.3000 h5         1 5J9       0.049100
     48 H18        -11.2120    -6.3390    23.0230 hn         1 5J9       0.507500
     49 H19        -11.7430    -6.8340    21.4490 hn         1 5J9       0.507500
     50 H5          -2.5060   -19.1740    17.7140 ha         1 5J9       0.203000
     51 O2T         -7.4710   -19.2630    18.8560 o          1 5J9      -0.569000
@<TRIPOS>BOND
     1     1     3 ar  
     2     1     8 ar  
     3     1    28 1   
     4     2     6 2   
     5     2    19 1   
     6     2    32 1   
     7     3     4 ar  
     8     3    29 1   
     9     4     7 ar  
    10     4    31 1   
    11     5    28 1   
    12     5    29 2   
    13     5    33 1   
    14     6    16 1   
    15     6    17 1   
    16     7    30 ar  
    17     8    30 ar  
    18     9    10 1   
    19     9    15 1   
    20     9    51 2   
    21    10    11 2   
    22    11    12 1   
    23    11    13 1   
    24    12    34 1   
    25    12    35 1   
    26    13    14 2   
    27    13    50 1   
    28    14    15 1   
    29    14    36 1   
    30    15    16 1   
    31    16    37 1   
    32    16    38 1   
    33    17    18 2   
    34    18    19 1   
    35    19    20 1   
    36    20    21 1   
    37    20    23 1   
    38    20    39 1   
    39    21    22 1   
    40    21    27 1   
    41    21    40 1   
    42    22    41 1   
    43    23    24 1   
    44    23    26 1   
    45    23    42 1   
    46    24    25 1   
    47    24    43 1   
    48    24    44 1   
    49    25    45 1   
    50    26    27 1   
    51    27    28 1   
    52    27    46 1   
    53    30    47 1   
    54    31    48 1   
    55    31    49 1   
@<TRIPOS>SUBSTRUCTURE
     1 5J9         1 TEMP              0 ****  ****    0 ROOT
