@<TRIPOS>MOLECULE
5JA
   76    81     1     0     0
SMALL
No Charge or Current Charge


@<TRIPOS>ATOM
      1 N3           5.4020    21.8130    18.0450 nb         1 5JA      -0.228000
      2 C5           5.4650    21.2960    15.3480 ca         1 5JA       0.149900
      3 C7           6.5390    22.0410    17.3640 ca         1 5JA       0.271500
      4 C8           6.6060    21.8240    15.9760 ca         1 5JA      -0.241300
      5 C10          8.6500    23.3570    15.7990 c6         1 5JA      -0.101700
      6 C13          8.7190    23.3010    17.3080 cc         1 5JA       0.284300
      7 C17          0.9620    19.1080    22.7710 c3         1 5JA       0.146800
      8 C20          6.8410    20.8060    20.4260 ca         1 5JA      -0.079000
      9 C21          6.2530    20.1760    21.5360 ca         1 5JA      -0.114000
     10 C22          6.1430    20.8590    22.7560 ca         1 5JA      -0.101000
     11 C24          7.2230    22.7990    21.7560 ca         1 5JA      -0.079000
     12 C26          8.7990    20.8660    15.1730 c3         1 5JA      -0.087100
     13 C28          3.4020    21.8360    20.3420 cc         1 5JA      -0.222000
     14 C1           7.3200    22.1320    20.5150 ca         1 5JA      -0.034000
     15 C2           4.3650    21.3110    17.3570 ca         1 5JA       0.388900
     16 N4           3.2000    21.0000    18.0420 nu         1 5JA      -0.884800
     17 N6           4.3410    21.0310    16.0420 nb         1 5JA      -0.243000
     18 C9           7.8980    22.1290    15.2030 c6         1 5JA       0.009600
     19 C11          7.9410    22.8020    19.3460 cd         1 5JA      -0.015000
     20 C12          7.6990    22.6530    18.0030 cc         1 5JA      -0.288500
     21 N14          9.6220    23.8470    18.0870 nd         1 5JA      -0.515800
     22 N15          9.1530    23.5310    19.3610 na         1 5JA       0.117800
     23 N16         -0.1130    18.5020    23.6040 n3         1 5JA      -0.726600
     24 N19          1.6110    20.8110    21.0460 na         1 5JA       0.113800
     25 C23          6.6330    22.1700    22.8660 ca         1 5JA      -0.114000
     26 C25          9.9650    23.8840    20.5370 c3         1 5JA       0.073900
     27 C27          2.6510    21.6530    21.4630 cd         1 5JA      -0.154000
     28 C29          2.7810    21.0970    19.3320 cc         1 5JA       0.514900
     29 N30          1.6960    20.4730    19.6970 nd         1 5JA      -0.588800
     30 C31         -0.6840    19.4320    24.6310 c6         1 5JA       0.165300
     31 C32         -1.8150    18.7670    25.4800 c6         1 5JA       0.165800
     32 N33         -1.3690    17.4980    26.1370 n3         1 5JA      -0.715600
     33 C34         -0.8010    16.5710    25.1100 c6         1 5JA       0.165800
     34 C35          0.3330    17.2380    24.2680 c6         1 5JA       0.165300
     35 C36         -2.4220    16.8480    26.9680 c3         1 5JA       0.136800
     36 C37         -2.9860    17.6840    28.1610 c3         1 5JA       0.159600
     37 O38         -1.9250    18.1700    29.0220 os         1 5JA      -0.450000
     38 C39         -1.1630    17.1630    29.7140 c3         1 5JA       0.144900
     39 H1           5.4470    21.0820    14.2800 h4         1 5JA       0.019100
     40 H2           9.6550    23.4350    15.3640 hc         1 5JA       0.063700
     41 H3           8.1230    24.2730    15.5020 hc         1 5JA       0.063700
     42 H4           1.3730    18.3430    22.0990 h1         1 5JA       0.048200
     43 H5           1.7890    19.4410    23.4140 h1         1 5JA       0.048200
     44 H6           6.9470    20.2470    19.5000 ha         1 5JA       0.121000
     45 H7           5.8860    19.1550    21.4490 ha         1 5JA       0.116000
     46 H8           5.6850    20.3730    23.6150 ha         1 5JA       0.113000
     47 H9           7.5680    23.8240    21.8570 ha         1 5JA       0.121000
     48 H10          8.2730    20.0180    14.7180 hc         1 5JA       0.038033
     49 H11          9.7100    21.0420    14.5890 hc         1 5JA       0.038033
     50 H12          9.1010    20.5660    16.1840 hc         1 5JA       0.038033
     51 H13          4.2970    22.4360    20.2500 ha         1 5JA       0.173000
     52 H14          2.5120    20.5100    17.4780 hn         1 5JA       0.523000
     53 H15          7.6490    22.3520    14.1550 hc         1 5JA       0.051700
     54 H17          0.1680    21.1220    22.5240 h1         1 5JA       0.067200
     55 H18         -0.3120    19.9850    21.2490 h1         1 5JA       0.067200
     56 H19          6.5490    22.7030    23.8110 ha         1 5JA       0.116000
     57 H20         10.9990    24.0840    20.2310 h1         1 5JA       0.059367
     58 H21          9.5520    24.7810    21.0120 h1         1 5JA       0.059367
     59 H22          9.9630    23.0520    21.2520 h1         1 5JA       0.059367
     60 H23          2.7570    22.0290    22.4740 h4         1 5JA       0.148000
     61 H24          0.1090    19.7730    25.3130 h1         1 5JA       0.039950
     62 H25         -1.1040    20.3280    24.1530 h1         1 5JA       0.039950
     63 H26         -2.1480    19.4950    26.2340 h1         1 5JA       0.039200
     64 H27         -2.6750    18.5690    24.8230 h1         1 5JA       0.039200
     65 H29         -1.5930    16.2360    24.4250 h1         1 5JA       0.039200
     66 H30         -0.3940    15.6720    25.5940 h1         1 5JA       0.039200
     67 H31          0.6780    16.5140    23.5140 h1         1 5JA       0.039950
     68 H32          1.1870    17.4410    24.9310 h1         1 5JA       0.039950
     69 H33         -3.2710    16.5750    26.3270 h1         1 5JA       0.033700
     70 H34         -2.0330    15.9040    27.3730 h1         1 5JA       0.033700
     71 H35         -3.5570    18.5310    27.7620 h1         1 5JA       0.043200
     72 H36         -3.6880    17.0620    28.7310 h1         1 5JA       0.043200
     73 H37         -0.4520    17.6350    30.4050 h1         1 5JA       0.029700
     74 H38         -1.8210    16.5070    30.2990 h1         1 5JA       0.029700
     75 H39         -0.5870    16.5470    29.0120 h1         1 5JA       0.029700
     76 C18          0.5190    20.2990    21.8910 c3         1 5JA       0.095600
@<TRIPOS>BOND
     1     1     3 ar  
     2     1    15 ar  
     3     2     4 ar  
     4     2    17 ar  
     5     2    39 1   
     6     3     4 ar  
     7     3    20 1   
     8     4    18 1   
     9     5     6 1   
    10     5    18 1   
    11     5    40 1   
    12     5    41 1   
    13     6    20 1   
    14     6    21 2   
    15     7    23 1   
    16     7    42 1   
    17     7    43 1   
    18     7    76 1   
    19     8     9 ar  
    20     8    14 ar  
    21     8    44 1   
    22     9    10 ar  
    23     9    45 1   
    24    10    25 ar  
    25    10    46 1   
    26    11    14 ar  
    27    11    25 ar  
    28    11    47 1   
    29    12    18 1   
    30    12    48 1   
    31    12    49 1   
    32    12    50 1   
    33    13    27 2   
    34    13    28 1   
    35    13    51 1   
    36    14    19 1   
    37    15    16 1   
    38    15    17 ar  
    39    16    28 1   
    40    16    52 1   
    41    18    53 1   
    42    19    20 2   
    43    19    22 1   
    44    21    22 1   
    45    22    26 1   
    46    23    30 1   
    47    23    34 1   
    48    24    27 1   
    49    24    29 1   
    50    24    76 1   
    51    25    56 1   
    52    26    57 1   
    53    26    58 1   
    54    26    59 1   
    55    27    60 1   
    56    28    29 2   
    57    30    31 1   
    58    30    61 1   
    59    30    62 1   
    60    31    32 1   
    61    31    63 1   
    62    31    64 1   
    63    32    33 1   
    64    32    35 1   
    65    33    34 1   
    66    33    65 1   
    67    33    66 1   
    68    34    67 1   
    69    34    68 1   
    70    35    36 1   
    71    35    69 1   
    72    35    70 1   
    73    36    37 1   
    74    36    71 1   
    75    36    72 1   
    76    37    38 1   
    77    38    73 1   
    78    38    74 1   
    79    38    75 1   
    80    54    76 1   
    81    55    76 1   
@<TRIPOS>SUBSTRUCTURE
     1 5JA         1 TEMP              0 ****  ****    0 ROOT
