@<TRIPOS>MOLECULE
5JA
   76    81     1     0     0
SMALL
abcg2


@<TRIPOS>ATOM
      1 N3           5.4090    21.4890    18.2020 nb         1 5JA      -0.228000
      2 C5           5.4970    20.5640    15.6510 ca         1 5JA       0.149900
      3 C7           6.4850    21.7390    17.4440 ca         1 5JA       0.271500
      4 C8           6.5840    21.2850    16.1150 ca         1 5JA      -0.241300
      5 C10          8.4440    22.9010    15.5860 c6         1 5JA      -0.101700
      6 C13          8.5230    23.1040    17.0620 cc         1 5JA       0.284300
      7 C17          0.7820    19.1740    22.7790 c3         1 5JA       0.146800
      8 C20          7.3600    21.3610    21.0000 ca         1 5JA      -0.079000
      9 C21          6.8550    21.0690    22.2600 ca         1 5JA      -0.114000
     10 C22          6.3950    22.0930    23.0840 ca         1 5JA      -0.101000
     11 C24          6.9550    23.7060    21.3820 ca         1 5JA      -0.079000
     12 C26          8.8490    20.3920    15.5160 c3         1 5JA      -0.087100
     13 C28          3.6840    21.6680    20.6020 cc         1 5JA      -0.222000
     14 C1           7.4180    22.6830    20.5510 ca         1 5JA      -0.034000
     15 C2           4.4250    20.7830    17.6400 ca         1 5JA       0.388900
     16 N4           3.3010    20.5040    18.3700 nu         1 5JA      -0.884800
     17 N6           4.4140    20.3020    16.3840 nb         1 5JA      -0.243000
     18 C9           7.8290    21.5180    15.2850 c6         1 5JA       0.009600
     19 C11          7.9660    22.9760    19.2200 cd         1 5JA      -0.015000
     20 C12          7.5820    22.5360    17.9520 cc         1 5JA      -0.288500
     21 N14          9.4150    23.8360    17.7100 nd         1 5JA      -0.515800
     22 N15          9.0650    23.7460    19.0240 na         1 5JA       0.117800
     23 N16         -0.3280    18.7900    23.6370 n3         1 5JA      -0.726600
     24 N19          1.7570    20.9700    21.4120 na         1 5JA       0.113800
     25 C23          6.4430    23.4100    22.6410 ca         1 5JA      -0.114000
     26 C25          9.8830    24.4170    20.0170 c3         1 5JA       0.073900
     27 C27          2.8570    21.6900    21.7080 cd         1 5JA      -0.154000
     28 C29          2.9820    20.8790    19.6650 cc         1 5JA       0.514900
     29 N30          1.8150    20.4530    20.1600 nd         1 5JA      -0.588800
     30 C31         -0.2310    19.3680    24.9760 c6         1 5JA       0.165300
     31 C32         -1.4320    18.9850    25.8230 c6         1 5JA       0.165800
     32 N33         -1.5610    17.5350    25.9140 n3         1 5JA      -0.715600
     33 C34         -1.6570    16.9580    24.5770 c6         1 5JA       0.165800
     34 C35         -0.4520    17.3370    23.7350 c6         1 5JA       0.165300
     35 C36         -2.6740    17.1090    26.7510 c3         1 5JA       0.136800
     36 C37         -2.5390    17.4920    28.2210 c3         1 5JA       0.159600
     37 O38         -1.3170    17.1010    28.8320 os         1 5JA      -0.450000
     38 C39         -1.1320    15.6960    28.9080 c3         1 5JA       0.144900
     39 H1           5.4950    20.1770    14.6360 h4         1 5JA       0.019100
     40 H2           9.4290    22.9890    15.1260 hc         1 5JA       0.063700
     41 H3           7.8110    23.6810    15.1510 hc         1 5JA       0.063700
     42 H4           0.7810    18.5200    21.9070 h1         1 5JA       0.048200
     43 H5           1.7540    19.0460    23.2840 h1         1 5JA       0.048200
     44 H6           7.7120    20.5660    20.3560 ha         1 5JA       0.121000
     45 H7           6.8140    20.0420    22.5980 ha         1 5JA       0.116000
     46 H8           5.9930    21.8640    24.0620 ha         1 5JA       0.113000
     47 H9           6.9850    24.7310    21.0370 ha         1 5JA       0.121000
     48 H10          8.4130    19.4230    15.2680 hc         1 5JA       0.038033
     49 H11          9.7330    20.5440    14.8920 hc         1 5JA       0.038033
     50 H12          9.1690    20.3620    16.5600 hc         1 5JA       0.038033
     51 H13          4.6420    22.1310    20.4830 ha         1 5JA       0.173000
     52 H14          2.6030    19.9610    17.8850 hn         1 5JA       0.523000
     53 H15          7.5410    21.5000    14.2310 hc         1 5JA       0.051700
     54 H17          0.6800    21.3230    23.1190 h1         1 5JA       0.067200
     55 H18         -0.2790    20.7480    21.7510 h1         1 5JA       0.067200
     56 H19          6.0790    24.2100    23.2730 ha         1 5JA       0.116000
     57 H20         10.9250    24.3320    19.7190 h1         1 5JA       0.059367
     58 H21          9.6100    25.4700    20.0930 h1         1 5JA       0.059367
     59 H22          9.7390    23.9390    20.9820 h1         1 5JA       0.059367
     60 H23          2.9780    22.1590    22.6700 h4         1 5JA       0.148000
     61 H24          0.6910    19.0270    25.4780 h1         1 5JA       0.039950
     62 H25         -0.1850    20.4540    24.9020 h1         1 5JA       0.039950
     63 H26         -1.3000    19.4020    26.8210 h1         1 5JA       0.039200
     64 H27         -2.3420    19.4350    25.3900 h1         1 5JA       0.039200
     65 H29         -2.5750    17.2970    24.0650 h1         1 5JA       0.039200
     66 H30         -1.7100    15.8710    24.6670 h1         1 5JA       0.039200
     67 H31         -0.5670    16.9260    22.7310 h1         1 5JA       0.039950
     68 H32          0.4540    16.8910    24.1800 h1         1 5JA       0.039950
     69 H33         -3.6340    17.5280    26.3980 h1         1 5JA       0.033700
     70 H34         -2.7560    16.0240    26.6600 h1         1 5JA       0.033700
     71 H35         -2.5920    18.5730    28.3480 h1         1 5JA       0.043200
     72 H36         -3.3870    17.0500    28.7610 h1         1 5JA       0.043200
     73 H37         -0.2450    15.5230    29.5150 h1         1 5JA       0.029700
     74 H38         -1.9940    15.2110    29.3830 h1         1 5JA       0.029700
     75 H39         -0.9780    15.2510    27.9200 h1         1 5JA       0.029700
     76 C18          0.6600    20.6180    22.2910 c3         1 5JA       0.095600
@<TRIPOS>BOND
     1     1     3 ar  
     2     1    15 ar  
     3     2     4 ar  
     4     2    17 ar  
     5     2    39 1   
     6     3     4 ar  
     7     3    20 1   
     8     4    18 1   
     9     5     6 1   
    10     5    18 1   
    11     5    40 1   
    12     5    41 1   
    13     6    20 1   
    14     6    21 2   
    15     7    23 1   
    16     7    42 1   
    17     7    43 1   
    18     7    76 1   
    19     8     9 ar  
    20     8    14 ar  
    21     8    44 1   
    22     9    10 ar  
    23     9    45 1   
    24    10    25 ar  
    25    10    46 1   
    26    11    14 ar  
    27    11    25 ar  
    28    11    47 1   
    29    12    18 1   
    30    12    48 1   
    31    12    49 1   
    32    12    50 1   
    33    13    27 2   
    34    13    28 1   
    35    13    51 1   
    36    14    19 1   
    37    15    16 1   
    38    15    17 ar  
    39    16    28 1   
    40    16    52 1   
    41    18    53 1   
    42    19    20 2   
    43    19    22 1   
    44    21    22 1   
    45    22    26 1   
    46    23    30 1   
    47    23    34 1   
    48    24    27 1   
    49    24    29 1   
    50    24    76 1   
    51    25    56 1   
    52    26    57 1   
    53    26    58 1   
    54    26    59 1   
    55    27    60 1   
    56    28    29 2   
    57    30    31 1   
    58    30    61 1   
    59    30    62 1   
    60    31    32 1   
    61    31    63 1   
    62    31    64 1   
    63    32    33 1   
    64    32    35 1   
    65    33    34 1   
    66    33    65 1   
    67    33    66 1   
    68    34    67 1   
    69    34    68 1   
    70    35    36 1   
    71    35    69 1   
    72    35    70 1   
    73    36    37 1   
    74    36    71 1   
    75    36    72 1   
    76    37    38 1   
    77    38    73 1   
    78    38    74 1   
    79    38    75 1   
    80    54    76 1   
    81    55    76 1   
@<TRIPOS>SUBSTRUCTURE
     1 5JA         1 TEMP              0 ****  ****    0 ROOT
