@<TRIPOS>MOLECULE
5JC
   13    13     1     0     0
SMALL
bcc


@<TRIPOS>ATOM
      1 CL1         -2.3130    -1.2650     0.1880 cl         1 5JC      -0.106400
      2 CAI         -0.9370    -0.2170     0.0930 ca         1 5JC      -0.071600
      3 CAF          0.3320    -0.7650    -0.0040 ca         1 5JC      -0.070000
      4 CAH          1.4220     0.0830    -0.0760 ca         1 5JC      -0.007600
      5 CL2          3.0140    -0.5890    -0.1950 cl         1 5JC      -0.100400
      6 CAE          1.2530     1.4590    -0.0510 ca         1 5JC      -0.078000
      7 CAD         -0.0210     1.9890     0.0450 ca         1 5JC      -0.155000
      8 CAG         -1.1400     1.1630     0.1190 ca         1 5JC       0.160100
      9 OAA         -2.3460     1.7350     0.2110 oh         1 5JC      -0.484100
     10 H1           0.4570    -1.8390    -0.0210 ha         1 5JC       0.162000
     11 H2           2.1060     2.1200    -0.1070 ha         1 5JC       0.153000
     12 H3          -0.1580     3.0630     0.0640 ha         1 5JC       0.156000
     13 H4          -3.0500     1.0750     0.2480 ho         1 5JC       0.443000
@<TRIPOS>BOND
     1     1     2 1   
     2     2     3 ar  
     3     2     8 ar  
     4     3     4 ar  
     5     3    10 1   
     6     4     5 1   
     7     4     6 ar  
     8     6     7 ar  
     9     6    11 1   
    10     7     8 ar  
    11     7    12 1   
    12     8     9 1   
    13     9    13 1   
@<TRIPOS>SUBSTRUCTURE
     1 5JC         1 TEMP              0 ****  ****    0 ROOT
