@<TRIPOS>MOLECULE
5JC
   13    13     1     0     0
SMALL
No Charge or Current Charge


@<TRIPOS>ATOM
      1 Cl1         -2.3660    -1.2910     0.1870 cl         1 5JC      -0.198000
      2 CAI         -0.9710    -0.2150     0.0950 ca         1 5JC       0.020000
      3 CAF          0.3190    -0.7670    -0.0020 ca         1 5JC      -0.052000
      4 CAH          1.4390     0.0790    -0.0760 ca         1 5JC       0.084000
      5 Cl2          3.0530    -0.6110    -0.1970 cl         1 5JC      -0.192000
      6 CAE          1.2740     1.4750    -0.0530 ca         1 5JC      -0.060000
      7 CAD         -0.0170     2.0270     0.0440 ca         1 5JC      -0.137000
      8 CAG         -1.1390     1.1860     0.1180 ca         1 5JC       0.160100
      9 OAA         -2.3860     1.7390     0.2120 oh         1 5JC      -0.523100
     10 H1           0.4510    -1.8450    -0.0200 ha         1 5JC       0.144000
     11 H2           2.1440     2.1250    -0.1100 ha         1 5JC       0.135000
     12 H3          -0.1460     3.1070     0.0620 ha         1 5JC       0.138000
     13 H4          -3.0370     1.0050     0.2530 ho         1 5JC       0.482000
@<TRIPOS>BOND
     1     1     2 1   
     2     2     3 ar  
     3     2     8 ar  
     4     3     4 ar  
     5     3    10 1   
     6     4     5 1   
     7     4     6 ar  
     8     6     7 ar  
     9     6    11 1   
    10     7     8 ar  
    11     7    12 1   
    12     8     9 1   
    13     9    13 1   
@<TRIPOS>SUBSTRUCTURE
     1 5JC         1 TEMP              0 ****  ****    0 ROOT
