@<TRIPOS>MOLECULE
5JD
   13    13     1     0     0
SMALL
abcg2


@<TRIPOS>ATOM
      1 CAF          1.1450     1.0380     0.0450 ca         1 5JD      -0.138000
      2 CAI         -0.1700     0.6150    -0.0400 ca         1 5JD       0.157000
      3 CL1         -1.4200     1.7970    -0.1350 cl         1 5JD      -0.168000
      4 CAH         -0.4820    -0.7400    -0.0490 ca         1 5JD       0.078000
      5 CL2         -2.1190    -1.2750    -0.1540 cl         1 5JD      -0.173000
      6 CAE          0.5450    -1.6680     0.0280 ca         1 5JD      -0.053000
      7 CAD          1.8630    -1.2580     0.1140 ca         1 5JD      -0.201000
      8 CAG          2.1710     0.1000     0.1230 ca         1 5JD       0.153100
      9 OAA          3.4280     0.5640     0.2040 oh         1 5JD      -0.525100
     10 H1           1.3750     2.0960     0.0520 ha         1 5JD       0.147000
     11 H2           0.3140    -2.7250     0.0220 ha         1 5JD       0.132000
     12 H3           2.6490    -2.0020     0.1720 ha         1 5JD       0.122000
     13 H4           4.0570    -0.1650     0.2480 ho         1 5JD       0.470000
@<TRIPOS>BOND
     1     1     2 ar  
     2     1     8 ar  
     3     1    10 1   
     4     2     3 1   
     5     2     4 ar  
     6     4     5 1   
     7     4     6 ar  
     8     6     7 ar  
     9     6    11 1   
    10     7     8 ar  
    11     7    12 1   
    12     8     9 1   
    13     9    13 1   
@<TRIPOS>SUBSTRUCTURE
     1 5JD         1 TEMP              0 ****  ****    0 ROOT
