@<TRIPOS>MOLECULE
5JD
   13    13     1     0     0
SMALL
No Charge or Current Charge


@<TRIPOS>ATOM
      1 CAF          1.1430     1.0640     0.0450 ca         1 5JD      -0.138000
      2 CAI         -0.1930     0.6360    -0.0410 ca         1 5JD       0.157000
      3 Cl1         -1.4740     1.8450    -0.1380 cl         1 5JD      -0.168000
      4 CAH         -0.4910    -0.7430    -0.0490 ca         1 5JD       0.078000
      5 Cl2         -2.1570    -1.3160    -0.1560 cl         1 5JD      -0.173000
      6 CAE          0.5510    -1.6840     0.0290 ca         1 5JD      -0.053000
      7 CAD          1.8880    -1.2500     0.1150 ca         1 5JD      -0.201000
      8 CAG          2.1800     0.1230     0.1220 ca         1 5JD       0.153100
      9 OAA          3.4720     0.5480     0.2050 oh         1 5JD      -0.525100
     10 H1           1.3720     2.1260     0.0510 ha         1 5JD       0.147000
     11 H2           0.3220    -2.7470     0.0230 ha         1 5JD       0.132000
     12 H3           2.6860    -1.9860     0.1750 ha         1 5JD       0.122000
     13 H4           4.0560    -0.2400     0.2510 ho         1 5JD       0.470000
@<TRIPOS>BOND
     1     1     2 ar  
     2     1     8 ar  
     3     1    10 1   
     4     2     3 1   
     5     2     4 ar  
     6     4     5 1   
     7     4     6 ar  
     8     6     7 ar  
     9     6    11 1   
    10     7     8 ar  
    11     7    12 1   
    12     8     9 1   
    13     9    13 1   
@<TRIPOS>SUBSTRUCTURE
     1 5JD         1 TEMP              0 ****  ****    0 ROOT
