@<TRIPOS>MOLECULE
5JE
   22    24     1     0     0
SMALL
No Charge or Current Charge


@<TRIPOS>ATOM
      1 C1          -0.5670    -0.0660    -0.0270 cc         1 5JE       0.517300
      2 N2          -1.9610    -0.0560    -0.0270 na         1 5JE      -0.161300
      3 N3           0.1820     1.1010    -0.0240 na         1 5JE      -0.326600
      4 N4           0.1550    -1.1990    -0.0300 nd         1 5JE      -0.587100
      5 C5          -2.7360    -1.1890    -0.0300 cc         1 5JE      -0.170000
      6 C6          -2.7080     1.0860    -0.0240 cc         1 5JE       0.396400
      7 C7           1.4780     0.6780    -0.0240 ca         1 5JE      -0.074200
      8 C8           1.4580    -0.6980    -0.0280 ca         1 5JE       0.083400
      9 C9          -4.0090    -0.6690    -0.0290 cd         1 5JE       0.223900
     10 N10         -3.9890     0.7270    -0.0260 nd         1 5JE      -0.651000
     11 C11          2.6640     1.4210    -0.0220 ca         1 5JE      -0.112000
     12 C12          2.6580    -1.4250    -0.0300 ca         1 5JE      -0.050000
     13 C13          3.8800     0.7060    -0.0240 ca         1 5JE      -0.091000
     14 C14          3.8770    -0.7100    -0.0270 ca         1 5JE      -0.127000
     15 H3          -0.1600     2.0510    -0.0210 hn         1 5JE       0.364000
     16 H5          -2.3620    -2.2060    -0.0330 h4         1 5JE       0.183000
     17 H6          -2.3040     2.0910    -0.0220 h5         1 5JE       0.051100
     18 H9          -4.9430    -1.2190    -0.0310 h4         1 5JE       0.045100
     19 H11          2.6510     2.5090    -0.0190 ha         1 5JE       0.120000
     20 H12          2.6460    -2.5120    -0.0320 ha         1 5JE       0.132000
     21 H13          4.8250     1.2460    -0.0220 ha         1 5JE       0.116000
     22 H14          4.8200    -1.2530    -0.0280 ha         1 5JE       0.118000
@<TRIPOS>BOND
     1     1     2 1   
     2     1     3 1   
     3     1     4 2   
     4     2     5 1   
     5     2     6 1   
     6     3     7 1   
     7     3    15 1   
     8     4     8 1   
     9     5     9 2   
    10     5    16 1   
    11     6    10 2   
    12     6    17 1   
    13     7     8 ar  
    14     7    11 ar  
    15     8    12 ar  
    16     9    10 1   
    17     9    18 1   
    18    11    13 ar  
    19    11    19 1   
    20    12    14 ar  
    21    12    20 1   
    22    13    14 ar  
    23    13    21 1   
    24    14    22 1   
@<TRIPOS>SUBSTRUCTURE
     1 5JE         1 TEMP              0 ****  ****    0 ROOT
