@<TRIPOS>MOLECULE
5JE
   22    24     1     0     0
SMALL
bcc


@<TRIPOS>ATOM
      1 C1          -0.5450    -0.0430    -0.0290 cc         1 5JE       0.517300
      2 N2          -1.9290    -0.0310    -0.0270 na         1 5JE      -0.212000
      3 N3           0.1880     1.0950    -0.0260 na         1 5JE      -0.276300
      4 N4           0.1590    -1.1320    -0.0320 nd         1 5JE      -0.587100
      5 C5          -2.7290    -1.1520    -0.0300 cc         1 5JE      -0.202600
      6 C6          -2.7620     1.0510    -0.0240 cc         1 5JE       0.396400
      7 C7           1.5060     0.7060    -0.0260 ca         1 5JE      -0.074200
      8 C8           1.4660    -0.6970    -0.0300 ca         1 5JE       0.083400
      9 C9          -4.0030    -0.6810    -0.0280 cd         1 5JE       0.289200
     10 N10         -4.0090     0.6910    -0.0240 nd         1 5JE      -0.651000
     11 C11          2.6930     1.4230    -0.0210 ca         1 5JE      -0.130000
     12 C12          2.6530    -1.4250    -0.0310 ca         1 5JE      -0.068000
     13 C13          3.8640     0.6820    -0.0220 ca         1 5JE      -0.109000
     14 C14          3.8440    -0.7200    -0.0270 ca         1 5JE      -0.145000
     15 H3          -0.1450     2.0470    -0.0250 hn         1 5JE       0.313700
     16 H5          -2.3210    -2.1480    -0.0290 h4         1 5JE       0.201000
     17 H6          -2.4040     2.0690    -0.0230 h5         1 5JE       0.051100
     18 H9          -4.9160    -1.2550    -0.0300 h4         1 5JE       0.045100
     19 H11          2.7090     2.5050    -0.0180 ha         1 5JE       0.138000
     20 H12          2.6410    -2.5070    -0.0340 ha         1 5JE       0.150000
     21 H13          4.8150     1.1970    -0.0180 ha         1 5JE       0.134000
     22 H14          4.7820    -1.2600    -0.0280 ha         1 5JE       0.136000
@<TRIPOS>BOND
     1     1     2 1   
     2     1     3 1   
     3     1     4 2   
     4     2     5 1   
     5     2     6 1   
     6     3     7 1   
     7     3    15 1   
     8     4     8 1   
     9     5     9 2   
    10     5    16 1   
    11     6    10 2   
    12     6    17 1   
    13     7     8 ar  
    14     7    11 ar  
    15     8    12 ar  
    16     9    10 1   
    17     9    18 1   
    18    11    13 ar  
    19    11    19 1   
    20    12    14 ar  
    21    12    20 1   
    22    13    14 ar  
    23    13    21 1   
    24    14    22 1   
@<TRIPOS>SUBSTRUCTURE
     1 5JE         1 TEMP              0 ****  ****    0 ROOT
