@<TRIPOS>MOLECULE
5JF
   13    13     1     0     0
SMALL
No Charge or Current Charge


@<TRIPOS>ATOM
      1 Cl1          0.4970    -2.0850     0.0110 cl         1 5JF      -0.153000
      2 CAI         -0.1150    -0.4230    -0.0210 ca         1 5JF       0.092000
      3 CAH          0.7810     0.6660     0.0450 ca         1 5JF       0.133000
      4 Cl2          2.5230     0.4060     0.1600 cl         1 5JF      -0.170000
      5 CAF          0.2930     1.9830     0.0200 ca         1 5JF      -0.112000
      6 CAD         -1.0880     2.2230    -0.0720 ca         1 5JF      -0.081000
      7 CAE         -1.9850     1.1430    -0.1380 ca         1 5JF      -0.152000
      8 CAG         -1.5050    -0.1790    -0.1130 ca         1 5JF       0.128100
      9 OAA         -2.3960    -1.2180    -0.1780 oh         1 5JF      -0.539100
     10 H1           0.9870     2.8190     0.0710 ha         1 5JF       0.134000
     11 H2          -1.4630     3.2450    -0.0910 ha         1 5JF       0.124000
     12 H3          -3.0530     1.3410    -0.2080 ha         1 5JF       0.126000
     13 H4          -3.3040    -0.8520    -0.2370 ho         1 5JF       0.469000
@<TRIPOS>BOND
     1     1     2 1   
     2     2     3 ar  
     3     2     8 ar  
     4     3     4 1   
     5     3     5 ar  
     6     5     6 ar  
     7     5    10 1   
     8     6     7 ar  
     9     6    11 1   
    10     7     8 ar  
    11     7    12 1   
    12     8     9 1   
    13     9    13 1   
@<TRIPOS>SUBSTRUCTURE
     1 5JF         1 TEMP              0 ****  ****    0 ROOT
