@<TRIPOS>MOLECULE
5JF
   13    13     1     0     0
SMALL
bcc


@<TRIPOS>ATOM
      1 CL1          0.3550    -2.0170     0.0000 cl         1 5JF      -0.061400
      2 CAI         -0.1780    -0.3840    -0.0040 ca         1 5JF       0.000400
      3 CAH          0.7330     0.6670     0.0010 ca         1 5JF       0.041400
      4 CL2          2.4250     0.3440     0.0110 cl         1 5JF      -0.078400
      5 CAF          0.2930     1.9820    -0.0130 ca         1 5JF      -0.130000
      6 CAD         -1.0680     2.2420    -0.0220 ca         1 5JF      -0.099000
      7 CAE         -1.9840     1.2020    -0.0110 ca         1 5JF      -0.170000
      8 CAG         -1.5490    -0.1170    -0.0020 ca         1 5JF       0.128100
      9 OAA         -2.4170    -1.1530     0.0550 oh         1 5JF      -0.500100
     10 H1           1.0140     2.7860    -0.0130 ha         1 5JF       0.152000
     11 H2          -1.4150     3.2670    -0.0290 ha         1 5JF       0.142000
     12 H3          -3.0470     1.4070    -0.0030 ha         1 5JF       0.144000
     13 H4          -2.9900    -1.1560    -0.7210 ho         1 5JF       0.430000
@<TRIPOS>BOND
     1     1     2 1   
     2     2     3 ar  
     3     2     8 ar  
     4     3     4 1   
     5     3     5 ar  
     6     5     6 ar  
     7     5    10 1   
     8     6     7 ar  
     9     6    11 1   
    10     7     8 ar  
    11     7    12 1   
    12     8     9 1   
    13     9    13 1   
@<TRIPOS>SUBSTRUCTURE
     1 5JF         1 TEMP              0 ****  ****    0 ROOT
