@<TRIPOS>MOLECULE
5JG
   52    55     1     0     0
SMALL
No Charge or Current Charge


@<TRIPOS>ATOM
      1 C1          -2.3350     3.8240     0.4380 c3         1 5JG       0.143900
      2 C3          -3.6240     1.7060     0.4920 ca         1 5JG       0.094100
      3 C7          -4.9650    -0.3300     0.5610 ca         1 5JG      -0.224000
      4 C8          -4.8780     1.0740     0.6500 ca         1 5JG       0.157100
      5 C10         -7.3090     1.3060     1.0650 c3         1 5JG       0.142900
      6 C12         -1.3270    -1.2670    -0.1040 cc         1 5JG       0.471400
      7 C14          0.0110    -3.0160    -0.4500 ca         1 5JG       0.382500
      8 C15          0.7290    -1.8450    -0.4820 ca         1 5JG      -0.039600
      9 C19          1.8610    -4.3090    -0.8480 ca         1 5JG       0.419900
     10 C22          2.6270     0.6150    -0.3920 c3         1 5JG       0.228800
     11 C24          3.4530     3.0430    -0.3260 c6         1 5JG      -0.110900
     12 N26          5.7000     3.5920     0.6160 n7         1 5JG      -0.842400
     13 C27          6.1600     2.1920     0.4510 c6         1 5JG       0.147300
     14 O2          -3.5630     3.0880     0.5850 os         1 5JG      -0.319100
     15 C4          -2.4730     0.9230     0.2460 ca         1 5JG      -0.118000
     16 C5          -2.5520    -0.4890     0.1540 ca         1 5JG      -0.146900
     17 C6          -3.8190    -1.0980     0.3160 ca         1 5JG       0.185000
     18 O9          -5.9930     1.8610     0.8910 os         1 5JG      -0.312100
     19 F11         -3.9690    -2.4390     0.2410 f          1 5JG      -0.186000
     20 N13         -1.2650    -2.6480    -0.2140 na         1 5JG      -0.402300
     21 N16         -0.1050    -0.7330    -0.2650 nd         1 5JG      -0.578100
     22 C17          2.1270    -1.9020    -0.7150 ca         1 5JG       0.448000
     23 C18          2.6980    -3.1770    -0.9020 ca         1 5JG      -0.086000
     24 N20          0.5250    -4.2410    -0.6230 nb         1 5JG      -0.704000
     25 Cl           4.4360    -3.3790    -1.2000 cl         1 5JG      -0.213000
     26 N21          2.9590    -0.7680    -0.7690 nu         1 5JG      -0.940200
     27 C23          3.8640     1.5530    -0.4960 c6         1 5JG      -0.078700
     28 C25          4.6840     3.9790    -0.3930 c6         1 5JG       0.147300
     29 C28          4.9720     1.2030     0.5400 c6         1 5JG      -0.110900
     30 H1          -1.6080     3.5260     1.2040 h1         1 5JG       0.043033
     31 H2          -1.8950     3.6560    -0.5530 h1         1 5JG       0.043033
     32 H3          -2.5220     4.8990     0.5490 h1         1 5JG       0.043033
     33 H4          -5.9130    -0.8470     0.6770 ha         1 5JG       0.141000
     34 H5          -8.0370     2.1060     1.2440 h1         1 5JG       0.045700
     35 H6          -7.6220     0.7550     0.1690 h1         1 5JG       0.045700
     36 H7          -7.3350     0.6250     1.9260 h1         1 5JG       0.045700
     37 H8           2.2750    -5.3070    -0.9880 h4         1 5JG       0.032100
     38 H9           1.8420     1.0010    -1.0580 h1         1 5JG       0.060700
     39 H10          2.2410     0.6500     0.6370 h1         1 5JG       0.060700
     40 H11          2.7370     3.3270    -1.1080 hc         1 5JG       0.047700
     41 H12          2.9370     3.1830     0.6340 hc         1 5JG       0.047700
     42 H13          5.2760     3.6810     1.5470 hn         1 5JG       0.402000
     43 H15          6.6580     2.0800    -0.5250 h1         1 5JG       0.053450
     44 H16          6.9010     1.9510     1.2280 h1         1 5JG       0.053450
     45 H17         -1.5070     1.4030     0.1230 ha         1 5JG       0.148000
     46 H18         -2.0480    -3.2750    -0.1310 hn         1 5JG       0.380000
     47 H20          3.9420    -0.9760    -0.9440 hn         1 5JG       0.496000
     48 H21          4.2720     1.4270    -1.5090 hc         1 5JG       0.049700
     49 H22          5.1270     3.9330    -1.4000 h1         1 5JG       0.053450
     50 H23          4.3670     5.0190    -0.2200 h1         1 5JG       0.053450
     51 H24          5.3430     0.1820     0.3770 hc         1 5JG       0.047700
     52 H25          4.5550     1.2230     1.5570 hc         1 5JG       0.047700
@<TRIPOS>BOND
     1     1    14 1   
     2     1    30 1   
     3     1    31 1   
     4     1    32 1   
     5     2     4 ar  
     6     2    14 1   
     7     2    15 ar  
     8     3     4 ar  
     9     3    17 ar  
    10     3    33 1   
    11     4    18 1   
    12     5    18 1   
    13     5    34 1   
    14     5    35 1   
    15     5    36 1   
    16     6    16 1   
    17     6    20 1   
    18     6    21 2   
    19     7     8 ar  
    20     7    20 1   
    21     7    24 ar  
    22     8    21 1   
    23     8    22 ar  
    24     9    23 ar  
    25     9    24 ar  
    26     9    37 1   
    27    10    26 1   
    28    10    27 1   
    29    10    38 1   
    30    10    39 1   
    31    11    27 1   
    32    11    28 1   
    33    11    40 1   
    34    11    41 1   
    35    12    13 1   
    36    12    28 1   
    37    12    42 1   
    38    13    29 1   
    39    13    43 1   
    40    13    44 1   
    41    15    16 ar  
    42    15    45 1   
    43    16    17 ar  
    44    17    19 1   
    45    20    46 1   
    46    22    23 ar  
    47    22    26 1   
    48    23    25 1   
    49    26    47 1   
    50    27    29 1   
    51    27    48 1   
    52    28    49 1   
    53    28    50 1   
    54    29    51 1   
    55    29    52 1   
@<TRIPOS>SUBSTRUCTURE
     1 5JG         1 TEMP              0 ****  ****    0 ROOT
