@<TRIPOS>MOLECULE
5JG
   52    55     1     0     0
SMALL
abcg2


@<TRIPOS>ATOM
      1 C1          -2.1440     3.6720     0.0670 c3         1 5JG       0.143900
      2 C3          -3.3850     1.6910     0.4280 ca         1 5JG       0.094100
      3 C7          -4.7410    -0.2650     0.8440 ca         1 5JG      -0.224000
      4 C8          -4.6260     1.1130     0.7860 ca         1 5JG       0.157100
      5 C10         -6.8780     1.4520     1.4220 c3         1 5JG       0.142900
      6 C12         -1.2280    -1.3150    -0.1200 cc         1 5JG       0.471400
      7 C14          0.0880    -3.0220    -0.5630 ca         1 5JG       0.382500
      8 C15          0.7920    -1.8130    -0.5930 ca         1 5JG      -0.039600
      9 C19          1.8440    -4.2680    -1.0630 ca         1 5JG       0.419900
     10 C22          2.5690     0.6260    -0.8050 c3         1 5JG       0.228800
     11 C24          3.3720     2.9850    -0.6000 c6         1 5JG      -0.110900
     12 N26          5.2140     3.5940     0.9770 n7         1 5JG      -0.842400
     13 C27          5.5920     2.1910     1.0660 c6         1 5JG       0.147300
     14 O2          -3.3630     3.0350     0.3940 os         1 5JG      -0.319100
     15 C4          -2.3160     0.8740     0.1430 ca         1 5JG      -0.118000
     16 C5          -2.4160    -0.5290     0.1930 ca         1 5JG      -0.146900
     17 C6          -3.6410    -1.0530     0.5480 ca         1 5JG       0.185000
     18 O9          -5.6150     1.9720     1.0480 os         1 5JG      -0.312100
     19 F11         -3.8040    -2.3870     0.6280 f          1 5JG      -0.186000
     20 N13         -1.1940    -2.6720    -0.2570 na         1 5JG      -0.402300
     21 N16         -0.0530    -0.7750    -0.3150 nd         1 5JG      -0.578100
     22 C17          2.1730    -1.8360    -0.8810 ca         1 5JG       0.448000
     23 C18          2.6560    -3.1410    -1.1200 ca         1 5JG      -0.086000
     24 N20          0.5480    -4.2440    -0.7840 nb         1 5JG      -0.704000
     25 CL           4.3400    -3.3570    -1.4920 cl         1 5JG      -0.213000
     26 N21          2.9740    -0.7610    -0.9180 nu         1 5JG      -0.940200
     27 C23          3.7770     1.5130    -0.5380 c6         1 5JG      -0.078700
     28 C25          4.5610     3.8920    -0.2880 c6         1 5JG       0.147300
     29 C28          4.4410     1.2200     0.8060 c6         1 5JG      -0.110900
     30 H1          -1.3590     3.4460     0.7940 h1         1 5JG       0.043033
     31 H2          -1.7920     3.3950    -0.9300 h1         1 5JG       0.043033
     32 H3          -2.3410     4.7410     0.0860 h1         1 5JG       0.043033
     33 H4          -5.6680    -0.7490     1.1190 ha         1 5JG       0.141000
     34 H5          -7.5250     2.3090     1.5870 h1         1 5JG       0.045700
     35 H6          -7.3080     0.8280     0.6350 h1         1 5JG       0.045700
     36 H7          -6.8190     0.8720     2.3460 h1         1 5JG       0.045700
     37 H8           2.2860    -5.2390    -1.2570 h4         1 5JG       0.032100
     38 H9           2.0660     0.9570    -1.7210 h1         1 5JG       0.060700
     39 H10          1.8510     0.7310     0.0070 h1         1 5JG       0.060700
     40 H11          2.9690     3.2280    -1.5880 hc         1 5JG       0.047700
     41 H12          2.5720     3.1740     0.1260 hc         1 5JG       0.047700
     42 H13          4.5700     3.8030     1.7310 hn         1 5JG       0.402000
     43 H15          6.3870     2.0080     0.3350 h1         1 5JG       0.053450
     44 H16          6.0260     2.0070     2.0510 h1         1 5JG       0.053450
     45 H17         -1.3580     1.2920    -0.1350 ha         1 5JG       0.148000
     46 H18         -1.9640    -3.3150    -0.1710 hn         1 5JG       0.380000
     47 H20          3.9070    -0.9140    -1.2700 hn         1 5JG       0.496000
     48 H21          4.5160     1.3380    -1.3340 hc         1 5JG       0.049700
     49 H22          5.3050     3.7900    -1.0850 h1         1 5JG       0.053450
     50 H23          4.2480     4.9380    -0.2850 h1         1 5JG       0.053450
     51 H24          4.8120     0.1920     0.8460 hc         1 5JG       0.047700
     52 H25          3.6960     1.3170     1.6050 hc         1 5JG       0.047700
@<TRIPOS>BOND
     1     1    14 1   
     2     1    30 1   
     3     1    31 1   
     4     1    32 1   
     5     2     4 ar  
     6     2    14 1   
     7     2    15 ar  
     8     3     4 ar  
     9     3    17 ar  
    10     3    33 1   
    11     4    18 1   
    12     5    18 1   
    13     5    34 1   
    14     5    35 1   
    15     5    36 1   
    16     6    16 1   
    17     6    20 1   
    18     6    21 2   
    19     7     8 ar  
    20     7    20 1   
    21     7    24 ar  
    22     8    21 1   
    23     8    22 ar  
    24     9    23 ar  
    25     9    24 ar  
    26     9    37 1   
    27    10    26 1   
    28    10    27 1   
    29    10    38 1   
    30    10    39 1   
    31    11    27 1   
    32    11    28 1   
    33    11    40 1   
    34    11    41 1   
    35    12    13 1   
    36    12    28 1   
    37    12    42 1   
    38    13    29 1   
    39    13    43 1   
    40    13    44 1   
    41    15    16 ar  
    42    15    45 1   
    43    16    17 ar  
    44    17    19 1   
    45    20    46 1   
    46    22    23 ar  
    47    22    26 1   
    48    23    25 1   
    49    26    47 1   
    50    27    29 1   
    51    27    48 1   
    52    28    49 1   
    53    28    50 1   
    54    29    51 1   
    55    29    52 1   
@<TRIPOS>SUBSTRUCTURE
     1 5JG         1 TEMP              0 ****  ****    0 ROOT
