@<TRIPOS>MOLECULE
5JH
   96    99     1     0     0
SMALL
No Charge or Current Charge


@<TRIPOS>ATOM
      1 C4          25.9690   -25.1010   -45.4710 ca         1 5JH      -0.111000
      2 C14         30.7760   -19.0560   -46.8740 c6         1 5JH       0.334400
      3 C5          25.5170   -25.6240   -44.2480 ca         1 5JH      -0.034000
      4 C6          25.5710   -27.0240   -44.0410 ca         1 5JH       0.086000
      5 C11         29.5530   -22.5360   -47.7600 ce         1 5JH      -0.149000
      6 C7          26.8380   -25.3460   -47.8390 c3         1 5JH      -0.000900
      7 C8          28.1720   -24.6270   -47.7030 c2         1 5JH      -0.087400
      8 C9          29.2980   -25.5560   -47.2680 c3         1 5JH      -0.062900
      9 C10         28.3070   -23.2960   -47.9140 ce         1 5JH      -0.193000
     10 C12         29.6360   -21.2000   -47.9330 c2         1 5JH      -0.252200
     11 C13         30.9010   -20.3770   -47.7670 c3         1 5JH       0.208500
     12 C3          26.3650   -25.9460   -46.5210 ca         1 5JH      -0.061300
     13 C1          25.9680   -27.8860   -45.0880 ca         1 5JH       0.116100
     14 C17         33.0650   -18.4800   -46.0160 c          1 5JH       0.719100
     15 C19         31.6080   -20.0270   -44.7050 c6         1 5JH       0.209300
     16 C2          26.3520   -27.3390   -46.3320 ca         1 5JH      -0.121000
     17 C20         30.4150   -19.3570   -45.4090 c6         1 5JH      -0.157400
     18 C22         31.4400   -20.2070   -43.1550 c3         1 5JH      -0.053700
     19 C23         30.0980   -20.8200   -42.7280 cx         1 5JH       0.089300
     20 C24         31.6670   -18.9010   -42.3440 c3         1 5JH      -0.084100
     21 C25         29.6200   -22.2180   -43.0440 cx         1 5JH       0.084000
     22 C26         28.0940   -22.4190   -43.0990 c3         1 5JH       0.189300
     23 C27         27.6240   -23.8860   -42.9270 c3         1 5JH      -0.159400
     24 C28         26.1710   -23.9770   -42.4370 c          1 5JH       0.613100
     25 C36         26.3870   -30.2050   -45.8530 c3         1 5JH       0.148900
     26 C37         30.7230   -19.3420   -50.0280 c3         1 5JH       0.149900
     27 C38         30.4480   -23.1450   -43.9390 c3         1 5JH      -0.081100
     28 C40         26.2880   -20.5700   -45.8380 c3         1 5JH      -0.140400
     29 C43         25.1880   -21.2430   -46.6900 c3         1 5JH      -0.069400
     30 C44         25.0030   -20.5670   -48.0690 c3         1 5JH      -0.077400
     31 C45         23.8570   -21.1600   -48.9240 c3         1 5JH      -0.074400
     32 C46         24.0600   -22.6380   -49.3310 c3         1 5JH      -0.077400
     33 C47         22.9660   -23.1560   -50.2840 c3         1 5JH      -0.091100
     34 N16         32.0230   -18.3430   -46.8960 ns         1 5JH      -0.561900
     35 N31         25.2080   -24.7220   -43.1690 n          1 5JH      -0.242400
     36 O15         31.4720   -20.1410   -49.0870 os         1 5JH      -0.451000
     37 O18         32.8200   -19.2740   -44.9220 os         1 5JH      -0.453100
     38 O21         34.1260   -17.9100   -46.1900 o          1 5JH      -0.539000
     39 O29         30.1820   -21.8860   -41.7540 op         1 5JH      -0.420000
     40 O30         27.6610   -21.9040   -44.3790 os         1 5JH      -0.458100
     41 O32         25.8650   -23.4340   -41.3800 o          1 5JH      -0.584100
     42 O34         25.9850   -29.2510   -44.8530 os         1 5JH      -0.349100
     43 O41         25.6670   -21.1110   -43.5560 o          1 5JH      -0.471000
     44 O42         29.7970   -18.1680   -47.3870 oh         1 5JH      -0.711000
     45 Cl33        25.1690   -27.7170   -42.4620 cl         1 5JH      -0.161000
     46 H1          26.0080   -24.0260   -45.6070 ha         1 5JH       0.134000
     47 H2          30.4500   -23.0920   -47.4850 ha         1 5JH       0.172000
     48 H3          26.0730   -24.6550   -48.2110 hc         1 5JH       0.060700
     49 H4          26.9160   -26.1230   -48.6090 hc         1 5JH       0.060700
     50 H5          30.2470   -25.3050   -47.7550 hc         1 5JH       0.047033
     51 H6          29.4490   -25.5040   -46.1830 hc         1 5JH       0.047033
     52 H7          29.0870   -26.6020   -47.5220 hc         1 5JH       0.047033
     53 H8          27.4360   -22.7150   -48.2150 ha         1 5JH       0.174000
     54 H9          28.7570   -20.6150   -48.2040 ha         1 5JH       0.188000
     55 H10         31.6170   -21.0170   -47.2380 h1         1 5JH       0.071700
     56 H11         31.7550   -21.0240   -45.1420 h1         1 5JH       0.053700
     57 H12         26.6680   -27.9800   -47.1500 ha         1 5JH       0.130000
     58 H13         30.1530   -18.4290   -44.8830 hc         1 5JH       0.076700
     59 H14         29.5290   -20.0030   -45.3660 hc         1 5JH       0.076700
     60 H15         32.2320   -20.8950   -42.8350 hc         1 5JH       0.078700
     61 H16         29.3220   -20.0750   -42.5390 h1         1 5JH       0.099700
     62 H17         31.5530   -19.0910   -41.2700 hc         1 5JH       0.047033
     63 H18         32.6780   -18.5050   -42.4980 hc         1 5JH       0.047033
     64 H19         30.9470   -18.1250   -42.6290 hc         1 5JH       0.047033
     65 H20         27.6800   -21.8210   -42.2730 h1         1 5JH       0.107700
     66 H21         27.8030   -24.4520   -43.8420 hc         1 5JH       0.082700
     67 H22         28.2370   -24.3360   -42.1380 hc         1 5JH       0.082700
     68 H23         23.8240   -25.1980   -41.6300 h1         1 5JH       0.046367
     69 H24         23.4190   -23.7450   -42.5930 h1         1 5JH       0.046367
     70 H25         23.1870   -25.3700   -43.2910 h1         1 5JH       0.046367
     71 H26         26.3240   -31.2240   -45.4520 h1         1 5JH       0.041033
     72 H27         25.7350   -30.1460   -46.7340 h1         1 5JH       0.041033
     73 H28         27.4240   -30.0270   -46.1670 h1         1 5JH       0.041033
     74 H29         31.1990   -19.3850   -51.0160 h1         1 5JH       0.035367
     75 H30         29.6940   -19.7070   -50.1400 h1         1 5JH       0.035367
     76 H31         30.6950   -18.2880   -49.7280 h1         1 5JH       0.035367
     77 H32         31.5220   -23.0310   -43.7570 hc         1 5JH       0.052033
     78 H33         30.2090   -24.2000   -43.7650 hc         1 5JH       0.052033
     79 H34         30.2580   -22.9320   -44.9970 hc         1 5JH       0.052033
     80 H35         27.2340   -20.6200   -46.3870 hc         1 5JH       0.073700
     81 H36         26.0120   -19.5220   -45.6780 hc         1 5JH       0.073700
     82 H37         24.2370   -21.2180   -46.1420 hc         1 5JH       0.050200
     83 H38         25.4460   -22.2950   -46.8400 hc         1 5JH       0.050200
     84 H39         24.8010   -19.5000   -47.9150 hc         1 5JH       0.040200
     85 H40         25.9420   -20.6280   -48.6330 hc         1 5JH       0.040200
     86 H41         23.7600   -20.5540   -49.8340 hc         1 5JH       0.042200
     87 H42         22.9110   -21.0600   -48.3790 hc         1 5JH       0.042200
     88 H43         24.0630   -23.2700   -48.4350 hc         1 5JH       0.033200
     89 H44         25.0380   -22.7540   -49.8140 hc         1 5JH       0.033200
     90 H45         23.1470   -24.2070   -50.5380 hc         1 5JH       0.033367
     91 H46         21.9770   -23.0820   -49.8160 hc         1 5JH       0.033367
     92 H47         22.9540   -22.5750   -51.2140 hc         1 5JH       0.033367
     93 H48         32.2320   -17.8020   -47.7220 hn         1 5JH       0.338500
     94 H49         29.8890   -17.3420   -46.8670 ho         1 5JH       0.520000
     95 C35         23.8270   -24.7630   -42.6370 c3         1 5JH       0.099300
     96 C39         26.4690   -21.2300   -44.4690 c          1 5JH       0.596100
@<TRIPOS>BOND
     1     1     3 ar  
     2     1    12 ar  
     3     1    46 1   
     4     2    11 1   
     5     2    17 1   
     6     2    34 1   
     7     2    44 1   
     8     3     4 ar  
     9     3    35 1   
    10     4    13 ar  
    11     4    45 1   
    12     5     9 1   
    13     5    10 2   
    14     5    47 1   
    15     6     7 1   
    16     6    12 1   
    17     6    48 1   
    18     6    49 1   
    19     7     8 1   
    20     7     9 2   
    21     8    50 1   
    22     8    51 1   
    23     8    52 1   
    24     9    53 1   
    25    10    11 1   
    26    10    54 1   
    27    11    36 1   
    28    11    55 1   
    29    12    16 ar  
    30    13    16 ar  
    31    13    42 1   
    32    14    34 1   
    33    14    37 1   
    34    14    38 2   
    35    15    17 1   
    36    15    18 1   
    37    15    37 1   
    38    15    56 1   
    39    16    57 1   
    40    17    58 1   
    41    17    59 1   
    42    18    19 1   
    43    18    20 1   
    44    18    60 1   
    45    19    21 1   
    46    19    39 1   
    47    19    61 1   
    48    20    62 1   
    49    20    63 1   
    50    20    64 1   
    51    21    22 1   
    52    21    27 1   
    53    21    39 1   
    54    22    23 1   
    55    22    40 1   
    56    22    65 1   
    57    23    24 1   
    58    23    66 1   
    59    23    67 1   
    60    24    35 1   
    61    24    41 2   
    62    25    42 1   
    63    25    71 1   
    64    25    72 1   
    65    25    73 1   
    66    26    36 1   
    67    26    74 1   
    68    26    75 1   
    69    26    76 1   
    70    27    77 1   
    71    27    78 1   
    72    27    79 1   
    73    28    29 1   
    74    28    80 1   
    75    28    81 1   
    76    28    96 1   
    77    29    30 1   
    78    29    82 1   
    79    29    83 1   
    80    30    31 1   
    81    30    84 1   
    82    30    85 1   
    83    31    32 1   
    84    31    86 1   
    85    31    87 1   
    86    32    33 1   
    87    32    88 1   
    88    32    89 1   
    89    33    90 1   
    90    33    91 1   
    91    33    92 1   
    92    34    93 1   
    93    35    95 1   
    94    40    96 1   
    95    43    96 2   
    96    44    94 1   
    97    68    95 1   
    98    69    95 1   
    99    70    95 1   
@<TRIPOS>SUBSTRUCTURE
     1 5JH         1 TEMP              0 ****  ****    0 ROOT
