@<TRIPOS>MOLECULE
5JH
   96    99     1     0     0
SMALL
abcg2


@<TRIPOS>ATOM
      1 C4          26.1700   -25.1190   -45.8890 ca         1 5JH      -0.111000
      2 C14         30.5640   -19.0740   -46.7700 c6         1 5JH       0.334400
      3 C5          25.7310   -25.5320   -44.6430 ca         1 5JH      -0.034000
      4 C6          25.8630   -26.8720   -44.2830 ca         1 5JH       0.086000
      5 C11         29.6680   -22.4300   -47.8160 ce         1 5JH      -0.149000
      6 C7          27.3340   -25.4880   -48.0720 c3         1 5JH      -0.000900
      7 C8          28.5800   -24.6740   -47.8280 c2         1 5JH      -0.087400
      8 C9          29.7620   -25.4600   -47.3550 c3         1 5JH      -0.062900
      9 C10         28.5580   -23.3430   -48.0090 ce         1 5JH      -0.193000
     10 C12         29.5750   -21.1030   -47.9610 c2         1 5JH      -0.252200
     11 C13         30.7650   -20.2070   -47.8090 c3         1 5JH       0.208500
     12 C3          26.7730   -26.0080   -46.7720 ca         1 5JH      -0.061300
     13 C1          26.4400   -27.7820   -45.1640 ca         1 5JH       0.116100
     14 C17         32.8440   -18.5610   -45.9170 c          1 5JH       0.719100
     15 C19         31.5180   -20.2780   -44.7780 c6         1 5JH       0.209300
     16 C2          26.8900   -27.3400   -46.4030 ca         1 5JH      -0.121000
     17 C20         30.3010   -19.5950   -45.3630 c6         1 5JH      -0.157400
     18 C22         31.4390   -20.5340   -43.2620 c3         1 5JH      -0.053700
     19 C23         30.0650   -21.0230   -42.8430 cx         1 5JH       0.089300
     20 C24         31.7780   -19.3000   -42.4250 c3         1 5JH      -0.084100
     21 C25         29.4540   -22.3090   -43.1970 cx         1 5JH       0.084000
     22 C26         27.9300   -22.3420   -43.1710 c3         1 5JH       0.189300
     23 C27         27.3450   -23.7420   -43.0990 c3         1 5JH      -0.159400
     24 C28         25.8290   -23.6870   -43.0490 c          1 5JH       0.613100
     25 C36         25.5490   -29.9400   -45.2350 c3         1 5JH       0.148900
     26 C37         30.3180   -19.4050   -50.0580 c3         1 5JH       0.149900
     27 C38         30.1500   -23.3140   -44.0730 c3         1 5JH      -0.081100
     28 C40         26.3540   -20.0740   -45.6550 c3         1 5JH      -0.140400
     29 C43         25.5050   -21.1000   -46.3990 c3         1 5JH      -0.069400
     30 C44         24.9140   -20.5060   -47.6730 c3         1 5JH      -0.077400
     31 C45         23.8950   -21.4050   -48.3650 c3         1 5JH      -0.074400
     32 C46         24.4540   -22.7350   -48.8550 c3         1 5JH      -0.077400
     33 C47         23.4360   -23.5440   -49.6460 c3         1 5JH      -0.091100
     34 N16         31.7700   -18.2700   -46.6870 ns         1 5JH      -0.561900
     35 N31         25.1310   -24.6100   -43.7570 n          1 5JH      -0.242400
     36 O15         31.2410   -19.6570   -49.0220 os         1 5JH      -0.451000
     37 O18         32.7200   -19.5320   -45.0080 os         1 5JH      -0.453100
     38 O21         33.9030   -17.9800   -45.9990 o          1 5JH      -0.539000
     39 O29         30.0140   -22.0940   -41.9100 op         1 5JH      -0.420000
     40 O30         27.4320   -21.7380   -44.3760 os         1 5JH      -0.458100
     41 O32         25.2530   -22.8560   -42.3660 o          1 5JH      -0.584100
     42 O34         26.5910   -29.0750   -44.7950 os         1 5JH      -0.349100
     43 O41         26.8200   -19.8580   -43.3160 o          1 5JH      -0.471000
     44 O42         29.5160   -18.2800   -47.2280 oh         1 5JH      -0.711000
     45 CL33        25.3470   -27.3980   -42.7280 cl         1 5JH      -0.161000
     46 H1          26.0620   -24.0760   -46.1570 ha         1 5JH       0.134000
     47 H2          30.6350   -22.8490   -47.5530 ha         1 5JH       0.172000
     48 H3          26.5820   -24.8800   -48.5790 hc         1 5JH       0.060700
     49 H4          27.5690   -26.3290   -48.7300 hc         1 5JH       0.060700
     50 H5          30.6700   -24.8710   -47.2580 hc         1 5JH       0.047033
     51 H6          29.5580   -25.9110   -46.3800 hc         1 5JH       0.047033
     52 H7          29.9680   -26.2850   -48.0410 hc         1 5JH       0.047033
     53 H8          27.6280   -22.8900   -48.3440 ha         1 5JH       0.174000
     54 H9          28.6190   -20.6590   -48.2240 ha         1 5JH       0.188000
     55 H10         31.5950   -20.8210   -47.4390 h1         1 5JH       0.071700
     56 H11         31.6500   -21.2420   -45.2780 h1         1 5JH       0.053700
     57 H12         27.3540   -28.0530   -47.0750 ha         1 5JH       0.130000
     58 H13         29.9850   -18.7520   -44.7390 hc         1 5JH       0.076700
     59 H14         29.4830   -20.3140   -45.3920 hc         1 5JH       0.076700
     60 H15         32.1670   -21.3160   -43.0290 hc         1 5JH       0.078700
     61 H16         29.3750   -20.2110   -42.6090 h1         1 5JH       0.099700
     62 H17         31.6170   -19.5140   -41.3670 hc         1 5JH       0.047033
     63 H18         32.8160   -18.9990   -42.5400 hc         1 5JH       0.047033
     64 H19         31.1450   -18.4490   -42.6840 hc         1 5JH       0.047033
     65 H20         27.5930   -21.7690   -42.3070 h1         1 5JH       0.107700
     66 H21         27.7130   -24.3610   -43.9140 hc         1 5JH       0.082700
     67 H22         27.6870   -24.2140   -42.1720 hc         1 5JH       0.082700
     68 H23         23.3350   -24.6370   -42.6470 h1         1 5JH       0.046367
     69 H24         23.2700   -23.6950   -44.1470 h1         1 5JH       0.046367
     70 H25         23.2860   -25.4590   -44.2080 h1         1 5JH       0.046367
     71 H26         25.7870   -30.9370   -44.8710 h1         1 5JH       0.041033
     72 H27         24.5800   -29.6370   -44.8320 h1         1 5JH       0.041033
     73 H28         25.4860   -29.9660   -46.3260 h1         1 5JH       0.041033
     74 H29         30.8880   -18.9720   -50.8800 h1         1 5JH       0.035367
     75 H30         29.8410   -20.3190   -50.4250 h1         1 5JH       0.035367
     76 H31         29.5330   -18.6970   -49.7800 h1         1 5JH       0.035367
     77 H32         31.2270   -23.1590   -44.0980 hc         1 5JH       0.052033
     78 H33         29.9790   -24.3310   -43.7180 hc         1 5JH       0.052033
     79 H34         29.7760   -23.2500   -45.0960 hc         1 5JH       0.052033
     80 H35         27.2110   -19.7860   -46.2750 hc         1 5JH       0.073700
     81 H36         25.7810   -19.1620   -45.4850 hc         1 5JH       0.073700
     82 H37         24.6960   -21.4530   -45.7510 hc         1 5JH       0.050200
     83 H38         26.1130   -21.9710   -46.6440 hc         1 5JH       0.050200
     84 H39         24.4330   -19.5540   -47.4300 hc         1 5JH       0.040200
     85 H40         25.7270   -20.2680   -48.3680 hc         1 5JH       0.040200
     86 H41         23.4740   -20.8630   -49.2170 hc         1 5JH       0.042200
     87 H42         23.0600   -21.5950   -47.6820 hc         1 5JH       0.042200
     88 H43         24.7990   -23.3320   -48.0070 hc         1 5JH       0.033200
     89 H44         25.3380   -22.5500   -49.4740 hc         1 5JH       0.033200
     90 H45         23.8500   -24.4990   -49.9700 hc         1 5JH       0.033367
     91 H46         22.5490   -23.7550   -49.0450 hc         1 5JH       0.033367
     92 H47         23.1080   -23.0040   -50.5360 hc         1 5JH       0.033367
     93 H48         31.9680   -17.6660   -47.4710 hn         1 5JH       0.338500
     94 H49         29.3340   -17.5870   -46.5810 ho         1 5JH       0.520000
     95 C35         23.6750   -24.5930   -43.6800 c3         1 5JH       0.099300
     96 C39         26.8760   -20.5230   -44.3180 c          1 5JH       0.596100
@<TRIPOS>BOND
     1     1     3 ar  
     2     1    12 ar  
     3     1    46 1   
     4     2    11 1   
     5     2    17 1   
     6     2    34 1   
     7     2    44 1   
     8     3     4 ar  
     9     3    35 1   
    10     4    13 ar  
    11     4    45 1   
    12     5     9 1   
    13     5    10 2   
    14     5    47 1   
    15     6     7 1   
    16     6    12 1   
    17     6    48 1   
    18     6    49 1   
    19     7     8 1   
    20     7     9 2   
    21     8    50 1   
    22     8    51 1   
    23     8    52 1   
    24     9    53 1   
    25    10    11 1   
    26    10    54 1   
    27    11    36 1   
    28    11    55 1   
    29    12    16 ar  
    30    13    16 ar  
    31    13    42 1   
    32    14    34 1   
    33    14    37 1   
    34    14    38 2   
    35    15    17 1   
    36    15    18 1   
    37    15    37 1   
    38    15    56 1   
    39    16    57 1   
    40    17    58 1   
    41    17    59 1   
    42    18    19 1   
    43    18    20 1   
    44    18    60 1   
    45    19    21 1   
    46    19    39 1   
    47    19    61 1   
    48    20    62 1   
    49    20    63 1   
    50    20    64 1   
    51    21    22 1   
    52    21    27 1   
    53    21    39 1   
    54    22    23 1   
    55    22    40 1   
    56    22    65 1   
    57    23    24 1   
    58    23    66 1   
    59    23    67 1   
    60    24    35 1   
    61    24    41 2   
    62    25    42 1   
    63    25    71 1   
    64    25    72 1   
    65    25    73 1   
    66    26    36 1   
    67    26    74 1   
    68    26    75 1   
    69    26    76 1   
    70    27    77 1   
    71    27    78 1   
    72    27    79 1   
    73    28    29 1   
    74    28    80 1   
    75    28    81 1   
    76    28    96 1   
    77    29    30 1   
    78    29    82 1   
    79    29    83 1   
    80    30    31 1   
    81    30    84 1   
    82    30    85 1   
    83    31    32 1   
    84    31    86 1   
    85    31    87 1   
    86    32    33 1   
    87    32    88 1   
    88    32    89 1   
    89    33    90 1   
    90    33    91 1   
    91    33    92 1   
    92    34    93 1   
    93    35    95 1   
    94    40    96 1   
    95    43    96 2   
    96    44    94 1   
    97    68    95 1   
    98    69    95 1   
    99    70    95 1   
@<TRIPOS>SUBSTRUCTURE
     1 5JH         1 TEMP              0 ****  ****    0 ROOT
