@<TRIPOS>MOLECULE
5JJ
   42    44     1     0     0
SMALL
No Charge or Current Charge


@<TRIPOS>ATOM
      1 C1           5.4750     0.6180    -0.6780 ca         1 5JJ       0.377900
      2 C2           5.2960    -0.5650     0.0420 ca         1 5JJ      -0.271000
      3 C3           4.0210    -0.8990     0.4890 ca         1 5JJ       0.350000
      4 C12         -1.8880     0.7780    -0.0120 ca         1 5JJ       0.289000
      5 C13         -2.7440     1.7990     0.4860 ca         1 5JJ       0.116500
      6 C14         -3.8390     2.2500    -0.2730 ca         1 5JJ      -0.101000
      7 C15         -4.1010     1.6990    -1.5370 ca         1 5JJ      -0.094000
      8 C16         -3.2600     0.6990    -2.0490 ca         1 5JJ      -0.101000
      9 C17         -2.1620     0.2420    -1.3000 ca         1 5JJ       0.116500
     10 C20         -1.0490    -0.5250     1.9470 c3         1 5JJ       0.326900
     11 C21         -1.3260    -1.9230     1.5930 c1         1 5JJ      -0.184100
     12 C22         -1.5440    -3.0660     1.2640 c1         1 5JJ      -0.111100
     13 C23         -1.7890    -4.4450     0.8260 c3         1 5JJ       0.005700
     14 C25         -1.1160    -4.7600    -0.5250 c3         1 5JJ      -0.087100
     15 C4           2.9430    -0.0290     0.2060 ca         1 5JJ      -0.085000
     16 C5           3.2150     1.1490    -0.5340 ca         1 5JJ       0.267000
     17 N6           4.4600     1.4590    -0.9630 nb         1 5JJ      -0.687000
     18 C7           1.6190    -0.3020     0.6350 ca         1 5JJ      -0.164000
     19 C8           0.5580     0.5780     0.3380 ca         1 5JJ       0.327000
     20 C9           0.8430     1.7400    -0.4020 ca         1 5JJ      -0.131000
     21 C10          2.1520     2.0200    -0.8280 ca         1 5JJ      -0.063000
     22 N11         -0.7740     0.3110     0.7510 nh         1 5JJ      -0.853200
     23 Cl1         -1.1490    -1.0230    -2.0120 cl         1 5JJ      -0.174000
     24 Cl2         -2.4500     2.5760     2.0480 cl         1 5JJ      -0.174000
     25 N24          3.8750    -2.0700     1.1890 nv         1 5JJ      -1.089000
     26 H1           6.4610     0.9050    -1.0410 h4         1 5JJ       0.012100
     27 H2           6.1480    -1.2060     0.2420 ha         1 5JJ       0.116000
     28 H3          -4.4820     3.0330     0.1190 ha         1 5JJ       0.135500
     29 H4          -4.9490     2.0510    -2.1210 ha         1 5JJ       0.125000
     30 H5          -3.4590     0.2750    -3.0310 ha         1 5JJ       0.135500
     31 H6          -1.9140    -0.1330     2.4980 h1         1 5JJ       0.071700
     32 H7          -0.2060    -0.4890     2.6510 h1         1 5JJ       0.071700
     33 H8          -1.4170    -5.1370     1.5910 hc         1 5JJ       0.057700
     34 H9          -2.8710    -4.6080     0.7420 hc         1 5JJ       0.057700
     35 H10         -1.5030    -4.1060    -1.3160 hc         1 5JJ       0.038367
     36 H11         -0.0290    -4.6210    -0.4610 hc         1 5JJ       0.038367
     37 H12         -1.3110    -5.7990    -0.8140 hc         1 5JJ       0.038367
     38 H13          1.4120    -1.2110     1.1880 ha         1 5JJ       0.113000
     39 H14          0.0530     2.4440    -0.6440 ha         1 5JJ       0.121000
     40 H15          2.3470     2.9270    -1.3940 ha         1 5JJ       0.130000
     41 H16          4.6500    -2.7290     1.2220 hn         1 5JJ       0.466000
     42 H17          2.9430    -2.4440     1.3510 hn         1 5JJ       0.466000
@<TRIPOS>BOND
     1     1     2 ar  
     2     1    17 ar  
     3     1    26 1   
     4     2     3 ar  
     5     2    27 1   
     6     3    15 ar  
     7     3    25 1   
     8     4     5 ar  
     9     4     9 ar  
    10     4    22 1   
    11     5     6 ar  
    12     5    24 1   
    13     6     7 ar  
    14     6    28 1   
    15     7     8 ar  
    16     7    29 1   
    17     8     9 ar  
    18     8    30 1   
    19     9    23 1   
    20    10    11 1   
    21    10    22 1   
    22    10    31 1   
    23    10    32 1   
    24    11    12 3   
    25    12    13 1   
    26    13    14 1   
    27    13    33 1   
    28    13    34 1   
    29    14    35 1   
    30    14    36 1   
    31    14    37 1   
    32    15    16 ar  
    33    15    18 ar  
    34    16    17 ar  
    35    16    21 ar  
    36    18    19 ar  
    37    18    38 1   
    38    19    20 ar  
    39    19    22 1   
    40    20    21 ar  
    41    20    39 1   
    42    21    40 1   
    43    25    41 1   
    44    25    42 1   
@<TRIPOS>SUBSTRUCTURE
     1 5JJ         1 TEMP              0 ****  ****    0 ROOT
