@<TRIPOS>MOLECULE
5JJ
   42    44     1     0     0
SMALL
bcc


@<TRIPOS>ATOM
      1 C1           5.3010     0.7450    -0.9390 ca         1 5JJ       0.443200
      2 C2           5.1920    -0.4370    -0.1990 ca         1 5JJ      -0.354300
      3 C3           3.9590    -0.8330     0.2900 ca         1 5JJ       0.211600
      4 C12         -1.9150     0.9350     0.0550 ca         1 5JJ       0.150600
      5 C13         -2.6610     1.8920     0.7460 ca         1 5JJ       0.024900
      6 C14         -3.7840     2.4880     0.1950 ca         1 5JJ      -0.119000
      7 C15         -4.1670     2.1420    -1.0910 ca         1 5JJ      -0.112000
      8 C16         -3.4420     1.2100    -1.8170 ca         1 5JJ      -0.119000
      9 C17         -2.3340     0.6120    -1.2390 ca         1 5JJ       0.024900
     10 C20         -1.0580    -0.7310     1.6100 c3         1 5JJ       0.326900
     11 C21         -1.0900    -2.0710     1.0180 c1         1 5JJ      -0.184100
     12 C22         -1.1140    -3.1660     0.5210 c1         1 5JJ      -0.111100
     13 C23         -1.1460    -4.4960    -0.0760 c3         1 5JJ       0.005700
     14 C25         -1.1330    -5.6120     0.9670 c3         1 5JJ      -0.087100
     15 C4           2.8410     0.0180     0.0090 ca         1 5JJ      -0.150300
     16 C5           3.0820     1.1800    -0.7600 ca         1 5JJ       0.397600
     17 N6           4.3010     1.5400    -1.2290 nb         1 5JJ      -0.687000
     18 C7           1.5360    -0.2670     0.4660 ca         1 5JJ      -0.182000
     19 C8           0.4770     0.5690     0.1780 ca         1 5JJ       0.188600
     20 C9           0.7250     1.7310    -0.5980 ca         1 5JJ      -0.149000
     21 C10          1.9800     2.0160    -1.0480 ca         1 5JJ      -0.146300
     22 N11         -0.8020     0.3310     0.6570 nh         1 5JJ      -0.576400
     23 CL1         -1.4400    -0.5470    -2.1480 cl         1 5JJ      -0.082400
     24 CL2         -2.1550     2.3540     2.3300 cl         1 5JJ      -0.082400
     25 N24          3.8240    -1.9530     1.0470 nv         1 5JJ      -0.840200
     26 H1           6.2790     1.0340    -1.3140 h4         1 5JJ       0.012100
     27 H2           6.0740    -1.0380    -0.0190 ha         1 5JJ       0.134000
     28 H3          -4.3430     3.2200     0.7600 ha         1 5JJ       0.153500
     29 H4          -5.0370     2.6060    -1.5340 ha         1 5JJ       0.143000
     30 H5          -3.7390     0.9440    -2.8210 ha         1 5JJ       0.153500
     31 H6          -2.0140    -0.5290     2.0960 h1         1 5JJ       0.071700
     32 H7          -0.3080    -0.6900     2.4050 h1         1 5JJ       0.071700
     33 H8          -2.0360    -4.5850    -0.7040 hc         1 5JJ       0.057700
     34 H9          -0.2900    -4.6050    -0.7470 hc         1 5JJ       0.057700
     35 H10         -0.2340    -5.5660     1.5810 hc         1 5JJ       0.038367
     36 H11         -1.9980    -5.5430     1.6260 hc         1 5JJ       0.038367
     37 H12         -1.1570    -6.5850     0.4770 hc         1 5JJ       0.038367
     38 H13          1.3620    -1.1630     1.0450 ha         1 5JJ       0.131000
     39 H14         -0.0840     2.4120    -0.8300 ha         1 5JJ       0.139000
     40 H15          2.1550     2.9100    -1.6340 ha         1 5JJ       0.148000
     41 H16          4.6010    -2.5920     1.0600 hn         1 5JJ       0.410800
     42 H17          2.9330    -2.4160     1.0900 hn         1 5JJ       0.410800
@<TRIPOS>BOND
     1     1     2 ar  
     2     1    17 ar  
     3     1    26 1   
     4     2     3 ar  
     5     2    27 1   
     6     3    15 ar  
     7     3    25 1   
     8     4     5 ar  
     9     4     9 ar  
    10     4    22 1   
    11     5     6 ar  
    12     5    24 1   
    13     6     7 ar  
    14     6    28 1   
    15     7     8 ar  
    16     7    29 1   
    17     8     9 ar  
    18     8    30 1   
    19     9    23 1   
    20    10    11 1   
    21    10    22 1   
    22    10    31 1   
    23    10    32 1   
    24    11    12 3   
    25    12    13 1   
    26    13    14 1   
    27    13    33 1   
    28    13    34 1   
    29    14    35 1   
    30    14    36 1   
    31    14    37 1   
    32    15    16 ar  
    33    15    18 ar  
    34    16    17 ar  
    35    16    21 ar  
    36    18    19 ar  
    37    18    38 1   
    38    19    20 ar  
    39    19    22 1   
    40    20    21 ar  
    41    20    39 1   
    42    21    40 1   
    43    25    41 1   
    44    25    42 1   
@<TRIPOS>SUBSTRUCTURE
     1 5JJ         1 TEMP              0 ****  ****    0 ROOT
