@<TRIPOS>MOLECULE
5JK
   75    78     1     0     0
SMALL
abcg2


@<TRIPOS>ATOM
      1 C18          0.7090     1.0160     1.5580 c3         1 5JK      -0.079100
      2 C13          0.6470     0.3830     0.1650 c5         1 5JK      -0.040000
      3 C12          0.0150     1.3370    -0.8490 c6         1 5JK      -0.061400
      4 C11         -1.4510     1.6110    -0.5140 c6         1 5JK      -0.070400
      5 C9          -2.3130     0.3470    -0.3790 c6         1 5JK      -0.047700
      6 C10         -3.7790     0.6630     0.0240 c6         1 5JK      -0.002800
      7 C19         -3.8410     1.6530     1.2000 c3         1 5JK      -0.081100
      8 C1          -4.5010     1.2670    -1.2000 c6         1 5JK      -0.064400
      9 C2          -6.0030     1.4370    -1.0140 c6         1 5JK      -0.111400
     10 C3          -6.6510     0.1010    -0.6880 c6         1 5JK       0.173300
     11 O1          -8.0400     0.2090    -0.4550 oh         1 5JK      -0.661000
     12 C4          -6.0160    -0.4910     0.5630 c6         1 5JK      -0.042200
     13 C5          -4.5200    -0.6010     0.4250 c2         1 5JK      -0.072400
     14 C6          -3.9130    -1.7640     0.6480 c2         1 5JK      -0.272200
     15 C7          -2.4400    -2.0020     0.5200 c6         1 5JK       0.213500
     16 O2          -2.1570    -2.7000    -0.6860 oh         1 5JK      -0.658000
     17 C8          -1.6590    -0.6930     0.5430 c6         1 5JK      -0.032700
     18 C14         -0.2040    -0.8970     0.1440 c5         1 5JK      -0.060700
     19 C15          0.6250    -1.9130     0.9170 c5         1 5JK      -0.069400
     20 C16          2.0760    -1.5530     0.5400 c5         1 5JK      -0.075400
     21 C17          2.0320    -0.1980    -0.2170 c5         1 5JK      -0.052700
     22 C20          3.2880     0.6490     0.0290 c3         1 5JK      -0.047700
     23 C21          3.2100     2.0340    -0.6100 c3         1 5JK      -0.086100
     24 C22          4.5360    -0.0860    -0.4840 c3         1 5JK      -0.077400
     25 C23          5.8530     0.4330     0.0870 c3         1 5JK      -0.075400
     26 C24          7.0620    -0.2380    -0.5550 c3         1 5JK      -0.073400
     27 C25          8.4150     0.2620    -0.0460 c3         1 5JK      -0.060700
     28 C27          8.6390    -0.0880     1.4230 c3         1 5JK      -0.087100
     29 C26          9.5470    -0.3040    -0.8990 c3         1 5JK      -0.087100
     30 H1          -0.2750     1.2800     1.9460 hc         1 5JK       0.031367
     31 H2           1.1760     0.3550     2.2910 hc         1 5JK       0.031367
     32 H3           1.2980     1.9350     1.5410 hc         1 5JK       0.031367
     33 H4           0.5460     2.2880    -0.8990 hc         1 5JK       0.041200
     34 H5           0.0930     0.8890    -1.8470 hc         1 5JK       0.041200
     35 H6          -1.4850     2.1910     0.4100 hc         1 5JK       0.037700
     36 H7          -1.8780     2.2610    -1.2830 hc         1 5JK       0.037700
     37 H8          -2.3600    -0.1150    -1.3740 hc         1 5JK       0.060700
     38 H9          -3.5230     2.6500     0.8950 hc         1 5JK       0.035367
     39 H10         -4.8490     1.7540     1.6010 hc         1 5JK       0.035367
     40 H11         -3.2000     1.3340     2.0250 hc         1 5JK       0.035367
     41 H12         -4.0490     2.2310    -1.4470 hc         1 5JK       0.044700
     42 H13         -4.3270     0.6130    -2.0610 hc         1 5JK       0.044700
     43 H14         -6.2200     2.1510    -0.2130 hc         1 5JK       0.046200
     44 H15         -6.4370     1.8510    -1.9290 hc         1 5JK       0.046200
     45 H16         -6.4550    -0.5870    -1.5260 h1         1 5JK       0.031700
     46 H17         -8.4510     0.5590    -1.2520 ho         1 5JK       0.442000
     47 H18         -6.2790     0.1450     1.4150 hc         1 5JK       0.059700
     48 H19         -6.4390    -1.4780     0.7700 hc         1 5JK       0.059700
     49 H21         -4.5180    -2.6290     0.9140 ha         1 5JK       0.170000
     50 H23         -2.1100    -2.6090     1.3760 h1         1 5JK       0.034700
     51 H24         -2.6830    -3.5060    -0.6940 ho         1 5JK       0.439000
     52 H25         -1.7010    -0.3370     1.5800 hc         1 5JK       0.053700
     53 H26         -0.2030    -1.2240    -0.9040 hc         1 5JK       0.063700
     54 H27          0.4610    -1.8150     1.9940 hc         1 5JK       0.041700
     55 H28          0.3700    -2.9390     0.6510 hc         1 5JK       0.041700
     56 H29          2.7060    -1.4720     1.4300 hc         1 5JK       0.039200
     57 H30          2.5270    -2.3320    -0.0760 hc         1 5JK       0.039200
     58 H31          1.9920    -0.4060    -1.2960 hc         1 5JK       0.045700
     59 H32          3.4020     0.7740     1.1140 hc         1 5JK       0.045700
     60 H33          2.4680     2.6720    -0.1300 hc         1 5JK       0.031700
     61 H34          4.1640     2.5590    -0.5450 hc         1 5JK       0.031700
     62 H35          2.9470     1.9600    -1.6680 hc         1 5JK       0.031700
     63 H36          4.4700    -1.1530    -0.2530 hc         1 5JK       0.038200
     64 H37          4.5560    -0.0160    -1.5790 hc         1 5JK       0.038200
     65 H38          5.9370     1.5150    -0.0560 hc         1 5JK       0.037700
     66 H39          5.8560     0.2690     1.1690 hc         1 5JK       0.037700
     67 H40          7.0030    -1.3240    -0.4100 hc         1 5JK       0.037200
     68 H41          7.0120    -0.0760    -1.6380 hc         1 5JK       0.037200
     69 H42          8.4280     1.3540    -0.1440 hc         1 5JK       0.043700
     70 H43          7.8680     0.3290     2.0700 hc         1 5JK       0.031700
     71 H44          8.6370    -1.1730     1.5610 hc         1 5JK       0.031700
     72 H45          9.6040     0.2860     1.7750 hc         1 5JK       0.031700
     73 H46          9.4240    -0.0400    -1.9520 hc         1 5JK       0.031700
     74 H47         10.5200     0.0700    -0.5740 hc         1 5JK       0.031700
     75 H48          9.5730    -1.3950    -0.8340 hc         1 5JK       0.031700
@<TRIPOS>BOND
     1     1     2 1   
     2     1    30 1   
     3     1    31 1   
     4     1    32 1   
     5     2     3 1   
     6     2    18 1   
     7     2    21 1   
     8     3     4 1   
     9     3    33 1   
    10     3    34 1   
    11     4     5 1   
    12     4    35 1   
    13     4    36 1   
    14     5     6 1   
    15     5    17 1   
    16     5    37 1   
    17     6     7 1   
    18     6     8 1   
    19     6    13 1   
    20     7    38 1   
    21     7    39 1   
    22     7    40 1   
    23     8     9 1   
    24     8    41 1   
    25     8    42 1   
    26     9    10 1   
    27     9    43 1   
    28     9    44 1   
    29    10    11 1   
    30    10    12 1   
    31    10    45 1   
    32    11    46 1   
    33    12    13 1   
    34    12    47 1   
    35    12    48 1   
    36    13    14 2   
    37    14    15 1   
    38    14    49 1   
    39    15    16 1   
    40    15    17 1   
    41    15    50 1   
    42    16    51 1   
    43    17    18 1   
    44    17    52 1   
    45    18    19 1   
    46    18    53 1   
    47    19    20 1   
    48    19    54 1   
    49    19    55 1   
    50    20    21 1   
    51    20    56 1   
    52    20    57 1   
    53    21    22 1   
    54    21    58 1   
    55    22    23 1   
    56    22    24 1   
    57    22    59 1   
    58    23    60 1   
    59    23    61 1   
    60    23    62 1   
    61    24    25 1   
    62    24    63 1   
    63    24    64 1   
    64    25    26 1   
    65    25    65 1   
    66    25    66 1   
    67    26    27 1   
    68    26    67 1   
    69    26    68 1   
    70    27    28 1   
    71    27    29 1   
    72    27    69 1   
    73    28    70 1   
    74    28    71 1   
    75    28    72 1   
    76    29    73 1   
    77    29    74 1   
    78    29    75 1   
@<TRIPOS>SUBSTRUCTURE
     1 5JK         1 TEMP              0 ****  ****    0 ROOT
