@<TRIPOS>MOLECULE
5JK
   75    78     1     0     0
SMALL
No Charge or Current Charge


@<TRIPOS>ATOM
      1 C18          0.6680     1.0290     1.8180 c3         1 5JK      -0.079100
      2 C13          0.6330     0.4190     0.3730 c5         1 5JK      -0.040000
      3 C12          0.0030     1.4580    -0.6110 c6         1 5JK      -0.061400
      4 C11         -1.5040     1.7000    -0.3210 c6         1 5JK      -0.070400
      5 C9          -2.3680     0.3880    -0.3360 c6         1 5JK      -0.047700
      6 C10         -3.8930     0.6340     0.0370 c6         1 5JK      -0.002800
      7 C19         -4.0370     1.4150     1.3930 c3         1 5JK      -0.081100
      8 C1          -4.5700     1.4480    -1.1220 c6         1 5JK      -0.064400
      9 C2          -6.1120     1.5410    -1.0100 c6         1 5JK      -0.111400
     10 C3          -6.7410     0.1340    -0.9400 c6         1 5JK       0.173300
     11 O1          -8.1630     0.2410    -0.8240 oh         1 5JK      -0.661000
     12 C4          -6.1660    -0.6520     0.2580 c6         1 5JK      -0.042200
     13 C5          -4.6330    -0.7130     0.2340 c2         1 5JK      -0.072400
     14 C6          -4.0020    -1.8900     0.4020 c2         1 5JK      -0.272200
     15 C7          -2.5050    -2.0840     0.3540 c6         1 5JK       0.213500
     16 O2          -2.2190    -2.7030    -0.9020 oh         1 5JK      -0.658000
     17 C8          -1.7270    -0.7410     0.5420 c6         1 5JK      -0.032700
     18 C14         -0.2030    -0.8920     0.2250 c5         1 5JK      -0.060700
     19 C15          0.5950    -1.9050     1.0830 c5         1 5JK      -0.069400
     20 C16          2.0800    -1.5450     0.7670 c5         1 5JK      -0.075400
     21 C17          2.0310    -0.1800    -0.0610 c5         1 5JK      -0.052700
     22 C20          3.3360     0.6800     0.1110 c3         1 5JK      -0.047700
     23 C21          3.2700     2.0700    -0.5720 c3         1 5JK      -0.086100
     24 C22          4.6160    -0.1150    -0.3690 c3         1 5JK      -0.077400
     25 C23          6.0350     0.5080    -0.1140 c3         1 5JK      -0.075400
     26 C24          7.1880    -0.4530    -0.4910 c3         1 5JK      -0.073400
     27 C25          8.6120     0.1550    -0.3640 c3         1 5JK      -0.060700
     28 C27          8.9620     0.5770     1.0840 c3         1 5JK      -0.087100
     29 C26          9.6770    -0.8160    -0.9220 c3         1 5JK      -0.087100
     30 H1          -0.3330     1.1920     2.2300 hc         1 5JK       0.031367
     31 H2           1.2030     0.3920     2.5310 hc         1 5JK       0.031367
     32 H3           1.1780     1.9990     1.8220 hc         1 5JK       0.031367
     33 H4           0.5170     2.4240    -0.5590 hc         1 5JK       0.041200
     34 H5           0.1180     1.1090    -1.6470 hc         1 5JK       0.041200
     35 H6          -1.5900     2.2160     0.6410 hc         1 5JK       0.037700
     36 H7          -1.8870     2.4050    -1.0700 hc         1 5JK       0.037700
     37 H8          -2.3410     0.0170    -1.3710 hc         1 5JK       0.060700
     38 H9          -3.6740     2.4450     1.3150 hc         1 5JK       0.035367
     39 H10         -5.0790     1.4930     1.7200 hc         1 5JK       0.035367
     40 H11         -3.4910     0.9280     2.2080 hc         1 5JK       0.035367
     41 H12         -4.1610     2.4660    -1.1640 hc         1 5JK       0.044700
     42 H13         -4.3250     0.9850    -2.0880 hc         1 5JK       0.044700
     43 H14         -6.3960     2.1310    -0.1280 hc         1 5JK       0.046200
     44 H15         -6.5050     2.0820    -1.8810 hc         1 5JK       0.046200
     45 H16         -6.4840    -0.4080    -1.8630 h1         1 5JK       0.031700
     46 H17         -8.4750     0.7170    -1.6240 ho         1 5JK       0.442000
     47 H18         -6.5030    -0.1930     1.1960 hc         1 5JK       0.059700
     48 H19         -6.5880    -1.6660     0.2570 hc         1 5JK       0.059700
     49 H21         -4.5770    -2.8020     0.5650 ha         1 5JK       0.170000
     50 H23         -2.2150    -2.7640     1.1690 h1         1 5JK       0.034700
     51 H24         -2.8680    -3.4310    -1.0000 ho         1 5JK       0.439000
     52 H25         -1.8220    -0.4620     1.5980 hc         1 5JK       0.053700
     53 H26         -0.1730    -1.2160    -0.8230 hc         1 5JK       0.063700
     54 H27          0.3740    -1.7960     2.1510 hc         1 5JK       0.041700
     55 H28          0.3610    -2.9420     0.8180 hc         1 5JK       0.041700
     56 H29          2.6610    -1.5130     1.7100 hc         1 5JK       0.039200
     57 H30          2.5440    -2.3340     0.1640 hc         1 5JK       0.039200
     58 H31          1.9940    -0.4210    -1.1310 hc         1 5JK       0.045700
     59 H32          3.4760     0.8680     1.1830 hc         1 5JK       0.045700
     60 H33          2.5830     2.7320    -0.0380 hc         1 5JK       0.031700
     61 H34          4.2410     2.5760    -0.5560 hc         1 5JK       0.031700
     62 H35          2.9480     1.9810    -1.6160 hc         1 5JK       0.031700
     63 H36          4.6190    -1.0970     0.1170 hc         1 5JK       0.038200
     64 H37          4.5130    -0.3150    -1.4430 hc         1 5JK       0.038200
     65 H38          6.1460     1.4300    -0.6960 hc         1 5JK       0.037700
     66 H39          6.1090     0.7800     0.9450 hc         1 5JK       0.037700
     67 H40          7.1230    -1.3540     0.1320 hc         1 5JK       0.037200
     68 H41          7.0380    -0.7790    -1.5280 hc         1 5JK       0.037200
     69 H42          8.6440     1.0590    -0.9860 hc         1 5JK       0.043700
     70 H43          8.2990     1.3760     1.4360 hc         1 5JK       0.031700
     71 H44          8.8750    -0.2740     1.7710 hc         1 5JK       0.031700
     72 H45          9.9890     0.9560     1.1380 hc         1 5JK       0.031700
     73 H46          9.4640    -1.0680    -1.9680 hc         1 5JK       0.031700
     74 H47         10.6750    -0.3620    -0.8830 hc         1 5JK       0.031700
     75 H48          9.7010    -1.7460    -0.3420 hc         1 5JK       0.031700
@<TRIPOS>BOND
     1     1     2 1   
     2     1    30 1   
     3     1    31 1   
     4     1    32 1   
     5     2     3 1   
     6     2    18 1   
     7     2    21 1   
     8     3     4 1   
     9     3    33 1   
    10     3    34 1   
    11     4     5 1   
    12     4    35 1   
    13     4    36 1   
    14     5     6 1   
    15     5    17 1   
    16     5    37 1   
    17     6     7 1   
    18     6     8 1   
    19     6    13 1   
    20     7    38 1   
    21     7    39 1   
    22     7    40 1   
    23     8     9 1   
    24     8    41 1   
    25     8    42 1   
    26     9    10 1   
    27     9    43 1   
    28     9    44 1   
    29    10    11 1   
    30    10    12 1   
    31    10    45 1   
    32    11    46 1   
    33    12    13 1   
    34    12    47 1   
    35    12    48 1   
    36    13    14 2   
    37    14    15 1   
    38    14    49 1   
    39    15    16 1   
    40    15    17 1   
    41    15    50 1   
    42    16    51 1   
    43    17    18 1   
    44    17    52 1   
    45    18    19 1   
    46    18    53 1   
    47    19    20 1   
    48    19    54 1   
    49    19    55 1   
    50    20    21 1   
    51    20    56 1   
    52    20    57 1   
    53    21    22 1   
    54    21    58 1   
    55    22    23 1   
    56    22    24 1   
    57    22    59 1   
    58    23    60 1   
    59    23    61 1   
    60    23    62 1   
    61    24    25 1   
    62    24    63 1   
    63    24    64 1   
    64    25    26 1   
    65    25    65 1   
    66    25    66 1   
    67    26    27 1   
    68    26    67 1   
    69    26    68 1   
    70    27    28 1   
    71    27    29 1   
    72    27    69 1   
    73    28    70 1   
    74    28    71 1   
    75    28    72 1   
    76    29    73 1   
    77    29    74 1   
    78    29    75 1   
@<TRIPOS>SUBSTRUCTURE
     1 5JK         1 TEMP              0 ****  ****    0 ROOT
