@<TRIPOS>MOLECULE
5JL
   16    17     1     0     0
SMALL
No Charge or Current Charge


@<TRIPOS>ATOM
      1 C4          -0.1720     0.6700    -0.0000 cc         1 5JL       0.130200
      2 C5          -0.3680    -0.6660     0.0010 cd         1 5JL      -0.221600
      3 C6           0.7740    -1.6100     0.0060 c          1 5JL       0.616200
      4 C8          -2.4090     0.2720    -0.0080 cs         1 5JL       0.389400
      5 N1           1.9840    -0.9600     0.0100 ns         1 5JL      -0.410500
      6 N3           1.1050     1.1660     0.0040 ns         1 5JL      -0.439600
      7 O6           0.6720    -2.8260     0.0080 o          1 5JL      -0.489000
      8 N7          -1.7410    -0.9290    -0.0040 ns         1 5JL      -0.370600
      9 S8          -4.0540     0.5290    -0.0140 s          1 5JL      -0.557400
     10 N9          -1.4210     1.2060    -0.0060 ns         1 5JL      -0.430600
     11 C2           2.2320     0.3870     0.0090 cs         1 5JL       0.447400
     12 S2           3.7700     1.0230     0.0140 s          1 5JL      -0.516400
     13 H1           2.7920    -1.5630     0.0140 hn         1 5JL       0.368500
     14 H2           1.2580     2.1710     0.0030 hn         1 5JL       0.490000
     15 H3          -2.2140    -1.8340    -0.0040 hn         1 5JL       0.503000
     16 H4          -1.6320     2.2000    -0.0080 hn         1 5JL       0.492000
@<TRIPOS>BOND
     1     1     2 2   
     2     1     6 1   
     3     1    10 1   
     4     2     3 1   
     5     2     8 1   
     6     3     5 1   
     7     3     7 2   
     8     4     8 1   
     9     4     9 2   
    10     4    10 1   
    11     5    11 1   
    12     5    13 1   
    13     6    11 1   
    14     6    14 1   
    15     8    15 1   
    16    10    16 1   
    17    11    12 2   
@<TRIPOS>SUBSTRUCTURE
     1 5JL         1 TEMP              0 ****  ****    0 ROOT
