@<TRIPOS>MOLECULE
5JL
   16    17     1     0     0
SMALL
bcc


@<TRIPOS>ATOM
      1 C4          -0.1600     0.6130    -0.0010 cc         1 5JL       0.130200
      2 C5          -0.3610    -0.7310     0.0000 cd         1 5JL      -0.221600
      3 C6           0.7350    -1.6410     0.0070 c          1 5JL       0.758700
      4 C8          -2.3660     0.2670    -0.0080 cs         1 5JL       0.523400
      5 N1           1.9530    -0.9460     0.0080 ns         1 5JL      -0.544500
      6 N3           1.0690     1.1750     0.0030 ns         1 5JL      -0.393100
      7 O6           0.6960    -2.8530     0.0110 o          1 5JL      -0.564500
      8 N7          -1.7270    -0.9160    -0.0030 ns         1 5JL      -0.324100
      9 S8          -4.0010     0.5600    -0.0130 s          1 5JL      -0.557400
     10 N9          -1.3700     1.2140    -0.0060 ns         1 5JL      -0.384100
     11 C2           2.1800     0.3940     0.0080 cs         1 5JL       0.581400
     12 S2           3.7060     1.0420     0.0150 s          1 5JL      -0.516400
     13 H1           2.7850    -1.5230     0.0120 hn         1 5JL       0.368500
     14 H2           1.1930     2.1790     0.0040 hn         1 5JL       0.376500
     15 H3          -2.2020    -1.8060    -0.0050 hn         1 5JL       0.389500
     16 H4          -1.5520     2.2080    -0.0080 hn         1 5JL       0.378500
@<TRIPOS>BOND
     1     1     2 2   
     2     1     6 1   
     3     1    10 1   
     4     2     3 1   
     5     2     8 1   
     6     3     5 1   
     7     3     7 2   
     8     4     8 1   
     9     4     9 2   
    10     4    10 1   
    11     5    11 1   
    12     5    13 1   
    13     6    11 1   
    14     6    14 1   
    15     8    15 1   
    16    10    16 1   
    17    11    12 2   
@<TRIPOS>SUBSTRUCTURE
     1 5JL         1 TEMP              0 ****  ****    0 ROOT
