@<TRIPOS>MOLECULE
5JM
   57    60     1     0     0
SMALL
abcg2


@<TRIPOS>ATOM
      1 N14         -3.9540     0.5100     0.1820 ns         1 5JM      -0.123000
      2 C18         -7.9990    -0.6660     0.3110 ca         1 5JM      -0.141600
      3 C17         -7.0820    -1.4070    -0.4250 ca         1 5JM      -0.068000
      4 C16         -5.7400    -1.0600    -0.5020 ca         1 5JM      -0.170000
      5 C15         -5.2830     0.0690     0.1770 ca         1 5JM      -0.077000
      6 C19         -7.5270     0.4590     0.9830 ca         1 5JM      -0.068000
      7 C20         -6.1950     0.8240     0.9190 ca         1 5JM      -0.170000
      8 C21          1.7680    -0.7200     0.1000 ce         1 5JM      -0.245200
      9 C22          2.9750    -0.4820     0.6100 cf         1 5JM      -0.122200
     10 C23          4.1740    -1.2660     0.3080 ca         1 5JM      -0.012800
     11 C24          5.4450    -0.6890     0.3510 ca         1 5JM      -0.004200
     12 C11          2.1180     2.9060    -1.6590 ca         1 5JM      -0.107000
     13 C12          0.9100     2.2610    -1.8820 ca         1 5JM      -0.105000
     14 C27          5.2380    -3.3610    -0.2270 ca         1 5JM       0.131000
     15 N2          -0.4710    -0.0410    -0.3040 ns         1 5JM      -0.479900
     16 O3           0.6550     0.9220     1.4110 o          1 5JM      -0.594100
     17 C4          -1.6100     0.8330    -0.2740 c3         1 5JM       0.021700
     18 C5          -2.8800     0.0100    -0.4660 c          1 5JM       0.594100
     19 C6          -1.5270     1.9090    -1.3840 c3         1 5JM      -0.050100
     20 C7          -0.2560     2.6970    -1.2570 ca         1 5JM      -0.084300
     21 C8          -0.1950     3.8170    -0.4330 ca         1 5JM      -0.105000
     22 C9           1.0080     4.4760    -0.2230 ca         1 5JM      -0.107000
     23 C10          2.1710     4.0140    -0.8240 ca         1 5JM      -0.104000
     24 O13         -2.8880    -0.9740    -1.1820 o          1 5JM      -0.601100
     25 C25          6.5920    -1.4290     0.1160 ca         1 5JM      -0.092000
     26 C26          6.4960    -2.7800    -0.1680 ca         1 5JM      -0.099000
     27 C28          4.0900    -2.6250     0.0090 ca         1 5JM      -0.090000
     28 CL2          5.0990    -5.0450    -0.5820 cl         1 5JM      -0.180000
     29 N30          5.5770     0.6960     0.6140 na         1 5JM       0.003500
     30 C31          6.1560     1.3210     1.6440 cc         1 5JM       0.394400
     31 N32          6.0690     2.6070     1.4360 nd         1 5JM      -0.383000
     32 N33          5.4350     2.7490     0.2690 nd         1 5JM      -0.046000
     33 N34          5.1360     1.6220    -0.2360 nc         1 5JM      -0.184800
     34 H47         -3.7870     1.3230     0.7550 hn         1 5JM       0.141000
     35 H49         -7.4200    -2.2880    -0.9560 ha         1 5JM       0.130000
     36 H48         -5.0680    -1.6690    -1.0850 ha         1 5JM       0.102500
     37 H50         -8.2110     1.0590     1.5670 ha         1 5JM       0.130000
     38 H51         -5.8540     1.7070     1.4490 ha         1 5JM       0.102500
     39 H52          1.6090    -1.5000    -0.6360 ha         1 5JM       0.184000
     40 H53          3.0880     0.3470     1.2990 ha         1 5JM       0.211000
     41 H45          3.0200     2.5350    -2.1270 ha         1 5JM       0.112000
     42 H46          0.8750     1.4000    -2.5380 ha         1 5JM       0.106500
     43 H38         -0.4110    -0.6860    -1.0780 hn         1 5JM       0.328500
     44 H39         -1.6190     1.3320     0.6960 h1         1 5JM       0.090700
     45 H41         -1.5770     1.4170    -2.3590 hc         1 5JM       0.062700
     46 H40         -2.3990     2.5620    -1.3070 hc         1 5JM       0.062700
     47 H42         -1.0940     4.1720     0.0570 ha         1 5JM       0.106500
     48 H43          1.0390     5.3460     0.4210 ha         1 5JM       0.112000
     49 H44          3.1160     4.5090    -0.6410 ha         1 5JM       0.119000
     50 H54          7.5620    -0.9510     0.1460 ha         1 5JM       0.132000
     51 H55          7.3880    -3.3630    -0.3490 ha         1 5JM       0.138000
     52 H56          3.1250    -3.1130    -0.0100 ha         1 5JM       0.146000
     53 H57          6.5980     0.8210     2.4890 h5         1 5JM       0.077100
     54 O36        -10.2050    -0.3470     1.0800 o          1 5JM      -0.720000
     55 O37         -9.7970    -2.0810    -0.2600 o          1 5JM      -0.720000
     56 C35         -9.4630    -1.0670     0.3830 c          1 5JM       0.713600
     57 C1           0.6150     0.1360     0.4780 c          1 5JM       0.604300
@<TRIPOS>BOND
     1     1     5 1   
     2     1    18 1   
     3     1    34 1   
     4     2     3 ar  
     5     2     6 ar  
     6     2    56 1   
     7     3     4 ar  
     8     3    35 1   
     9     4     5 ar  
    10     4    36 1   
    11     5     7 ar  
    12     6     7 ar  
    13     6    37 1   
    14     7    38 1   
    15     8     9 2   
    16     8    39 1   
    17     8    57 1   
    18     9    10 1   
    19     9    40 1   
    20    10    11 ar  
    21    10    27 ar  
    22    11    25 ar  
    23    11    29 1   
    24    12    13 ar  
    25    12    23 ar  
    26    12    41 1   
    27    13    20 ar  
    28    13    42 1   
    29    14    26 ar  
    30    14    27 ar  
    31    14    28 1   
    32    15    17 1   
    33    15    43 1   
    34    15    57 1   
    35    16    57 2   
    36    17    18 1   
    37    17    19 1   
    38    17    44 1   
    39    18    24 2   
    40    19    20 1   
    41    19    45 1   
    42    19    46 1   
    43    20    21 ar  
    44    21    22 ar  
    45    21    47 1   
    46    22    23 ar  
    47    22    48 1   
    48    23    49 1   
    49    25    26 ar  
    50    25    50 1   
    51    26    51 1   
    52    27    52 1   
    53    29    30 1   
    54    29    33 1   
    55    30    31 2   
    56    30    53 1   
    57    31    32 1   
    58    32    33 2   
    59    54    56 1   
    60    55    56 1   
@<TRIPOS>SUBSTRUCTURE
     1 5JM         1 TEMP              0 ****  ****    0 ROOT
