@<TRIPOS>MOLECULE
5JM
   57    60     1     0     0
SMALL
No Charge or Current Charge


@<TRIPOS>ATOM
      1 N14         -4.0310     0.5200     0.0830 ns         1 5JM      -0.123000
      2 C18         -8.0980    -0.7090     0.5210 ca         1 5JM      -0.141600
      3 C17         -7.1300    -1.6340     0.0680 ca         1 5JM      -0.068000
      4 C16         -5.7850    -1.2540    -0.0850 ca         1 5JM      -0.170000
      5 C15         -5.3730     0.0610     0.2130 ca         1 5JM      -0.077000
      6 C19         -7.6790     0.6070     0.8170 ca         1 5JM      -0.068000
      7 C20         -6.3330     0.9830     0.6630 ca         1 5JM      -0.170000
      8 C21          1.9520    -0.5570    -0.0580 ce         1 5JM      -0.245200
      9 C22          3.2040    -0.4460     0.4810 cf         1 5JM      -0.122200
     10 C23          4.4190    -1.2570     0.2170 ca         1 5JM      -0.012800
     11 C24          5.7020    -0.8520     0.6810 ca         1 5JM      -0.004200
     12 C11          1.6780     3.4420    -2.4240 ca         1 5JM      -0.107000
     13 C12          0.5670     2.5820    -2.3920 ca         1 5JM      -0.105000
     14 C27          5.4450    -3.2630    -0.7480 ca         1 5JM       0.131000
     15 N2          -0.3560     0.0450    -0.3920 ns         1 5JM      -0.479900
     16 O3           0.8780     1.2120     1.1300 o          1 5JM      -0.594100
     17 C4          -1.6110     0.8310    -0.3010 c3         1 5JM       0.021700
     18 C5          -2.8510    -0.1090    -0.3070 c          1 5JM       0.594100
     19 C6          -1.6910     1.8810    -1.4440 c3         1 5JM      -0.050100
     20 C7          -0.4900     2.8200    -1.4910 ca         1 5JM      -0.084300
     21 C8          -0.4250     3.9300    -0.6260 ca         1 5JM      -0.105000
     22 C9           0.6850     4.7920    -0.6610 ca         1 5JM      -0.107000
     23 C10          1.7380     4.5480    -1.5590 ca         1 5JM      -0.104000
     24 O13         -2.7710    -1.2940    -0.6260 o          1 5JM      -0.601100
     25 C25          6.8310    -1.6570     0.4260 ca         1 5JM      -0.092000
     26 C26          6.7040    -2.8590    -0.2870 ca         1 5JM      -0.099000
     27 C28          4.3130    -2.4720    -0.4990 ca         1 5JM      -0.090000
     28 Cl2          5.2810    -4.7710    -1.6380 cl         1 5JM      -0.180000
     29 N30          5.8870     0.3410     1.3830 na         1 5JM       0.003500
     30 C31          6.3050     0.4320     2.6780 cc         1 5JM       0.394400
     31 N32          6.4640     1.7240     2.9050 nd         1 5JM      -0.383000
     32 N33          6.1610     2.3760     1.7210 nd         1 5JM      -0.046000
     33 N34          5.8310     1.5400     0.7680 nc         1 5JM      -0.184800
     34 H47         -3.9160     1.4970     0.3180 hn         1 5JM       0.141000
     35 H49         -7.4190    -2.6560    -0.1700 ha         1 5JM       0.130000
     36 H48         -5.0820    -2.0010    -0.4380 ha         1 5JM       0.102500
     37 H50         -8.3960     1.3470     1.1690 ha         1 5JM       0.130000
     38 H51         -6.0390     2.0040     0.8990 ha         1 5JM       0.102500
     39 H52          1.7490    -1.3150    -0.8090 ha         1 5JM       0.184000
     40 H53          3.3350     0.3470     1.2210 ha         1 5JM       0.211000
     41 H45          2.4930     3.2510    -3.1190 ha         1 5JM       0.112000
     42 H46          0.5320     1.7260    -3.0620 ha         1 5JM       0.106500
     43 H38         -0.3330    -0.7440    -1.0280 hn         1 5JM       0.328500
     44 H39         -1.6270     1.3620     0.6600 h1         1 5JM       0.090700
     45 H41         -1.7920     1.3550    -2.4020 hc         1 5JM       0.062700
     46 H40         -2.6090     2.4710    -1.3310 hc         1 5JM       0.062700
     47 H42         -1.2330     4.1240     0.0760 ha         1 5JM       0.106500
     48 H43          0.7310     5.6460     0.0110 ha         1 5JM       0.112000
     49 H44          2.5980     5.2130    -1.5840 ha         1 5JM       0.119000
     50 H54          7.8140    -1.3460     0.7740 ha         1 5JM       0.132000
     51 H55          7.5780    -3.4750    -0.4830 ha         1 5JM       0.138000
     52 H56          3.3520    -2.8230    -0.8580 ha         1 5JM       0.146000
     53 H57          6.4580    -0.4060     3.3460 h5         1 5JM       0.077100
     54 O36        -10.3560    -0.2860     1.0820 o          1 5JM      -0.720000
     55 O37         -9.8710    -2.2700     0.4180 o          1 5JM      -0.720000
     56 C35         -9.5530    -1.1200     0.6860 c          1 5JM       0.713600
     57 C1           0.8030     0.3230     0.2950 c          1 5JM       0.604300
@<TRIPOS>BOND
     1     1     5 1   
     2     1    18 1   
     3     1    34 1   
     4     2     3 ar  
     5     2     6 ar  
     6     2    56 1   
     7     3     4 ar  
     8     3    35 1   
     9     4     5 ar  
    10     4    36 1   
    11     5     7 ar  
    12     6     7 ar  
    13     6    37 1   
    14     7    38 1   
    15     8     9 2   
    16     8    39 1   
    17     8    57 1   
    18     9    10 1   
    19     9    40 1   
    20    10    11 ar  
    21    10    27 ar  
    22    11    25 ar  
    23    11    29 1   
    24    12    13 ar  
    25    12    23 ar  
    26    12    41 1   
    27    13    20 ar  
    28    13    42 1   
    29    14    26 ar  
    30    14    27 ar  
    31    14    28 1   
    32    15    17 1   
    33    15    43 1   
    34    15    57 1   
    35    16    57 2   
    36    17    18 1   
    37    17    19 1   
    38    17    44 1   
    39    18    24 2   
    40    19    20 1   
    41    19    45 1   
    42    19    46 1   
    43    20    21 ar  
    44    21    22 ar  
    45    21    47 1   
    46    22    23 ar  
    47    22    48 1   
    48    23    49 1   
    49    25    26 ar  
    50    25    50 1   
    51    26    51 1   
    52    27    52 1   
    53    29    30 1   
    54    29    33 1   
    55    30    31 2   
    56    30    53 1   
    57    31    32 1   
    58    32    33 2   
    59    54    56 1   
    60    55    56 1   
@<TRIPOS>SUBSTRUCTURE
     1 5JM         1 TEMP              0 ****  ****    0 ROOT
