@<TRIPOS>MOLECULE
5JN
   57    58     1     0     0
SMALL
No Charge or Current Charge


@<TRIPOS>ATOM
      1 C1           7.4520     1.2620     2.9970 c3         1 5JN      -0.047800
      2 C6           6.8620     2.4660     0.8410 ca         1 5JN      -0.138000
      3 C5           6.7510     1.3200     1.6480 ca         1 5JN      -0.044800
      4 C4           5.9830     0.2280     1.2030 ca         1 5JN      -0.156000
      5 C3           5.3270     0.2720    -0.0460 ca         1 5JN      -0.013000
      6 C13          1.8250    -2.7840    -0.5450 ca         1 5JN      -0.107300
      7 C21         -4.5130    -2.2510     1.0340 c3         1 5JN      -0.101100
      8 C20         -3.2880    -1.8210     0.1900 c3         1 5JN       0.150000
      9 C18          1.3060    -3.7020     0.3850 ca         1 5JN      -0.057000
     10 C17         -0.0380    -3.6180     0.7860 ca         1 5JN      -0.161500
     11 O30         -7.5490     3.2640    -1.9100 o          1 5JN      -0.367500
     12 C7           6.2140     2.5250    -0.4050 ca         1 5JN      -0.044800
     13 C8           5.4530     1.4260    -0.8410 ca         1 5JN      -0.156000
     14 N9           4.5380    -0.7940    -0.5610 ns         1 5JN      -0.151000
     15 C10          4.1800    -2.0340    -0.0450 c          1 5JN       0.605100
     16 O11          4.5180    -2.4510     1.0580 o          1 5JN      -0.564100
     17 C12          3.2870    -2.8660    -0.9770 c3         1 5JN      -0.107100
     18 C14          0.9860    -1.7800    -1.0640 ca         1 5JN      -0.057000
     19 C15         -0.3590    -1.6970    -0.6620 ca         1 5JN      -0.161500
     20 C16         -0.8830    -2.6250     0.2660 ca         1 5JN       0.154100
     21 O19         -2.1930    -2.6200     0.7210 os         1 5JN      -0.336100
     22 C22         -3.5210    -2.2340    -1.2930 c3         1 5JN      -0.101100
     23 C23         -3.0710    -0.2810     0.3810 c          1 5JN       0.561100
     24 O24         -2.1620     0.2220     1.0320 o          1 5JN      -0.452000
     25 O25         -4.0300     0.4560    -0.2730 os         1 5JN      -0.442100
     26 C26         -3.9650     1.8950    -0.1820 c3         1 5JN       0.159600
     27 C27         -5.1520     2.4860    -0.9690 c3         1 5JN       0.144600
     28 O28         -6.3700     2.1720    -0.2600 os         1 5JN      -0.382000
     29 N29         -7.6090     2.6240    -0.8500 no         1 5JN       0.786000
     30 O31         -8.6360     2.3500    -0.2220 o          1 5JN      -0.367500
     31 H1           6.7760     1.5790     3.8000 hc         1 5JN       0.043200
     32 H2           7.7920     0.2460     3.2260 hc         1 5JN       0.043200
     33 H3           8.3310     1.9160     3.0210 hc         1 5JN       0.043200
     34 H4           7.4530     3.3130     1.1830 ha         1 5JN       0.112000
     35 H5           5.9110    -0.6440     1.8450 ha         1 5JN       0.126000
     36 H6           7.1840     3.6690    -1.9700 hc         1 5JN       0.043200
     37 H7           5.4330     3.9290    -1.8720 hc         1 5JN       0.043200
     38 H8           6.5030     4.6650    -0.6730 hc         1 5JN       0.043200
     39 H9          -4.3610    -2.0020     2.0910 hc         1 5JN       0.058033
     40 H10         -5.4230    -1.7410     0.6940 hc         1 5JN       0.058033
     41 H11         -4.6810    -3.3320     0.9580 hc         1 5JN       0.058033
     42 H12          1.9440    -4.4800     0.8010 ha         1 5JN       0.113000
     43 H13         -0.4300    -4.3320     1.5050 ha         1 5JN       0.120500
     44 H14          4.9550     1.4710    -1.8080 ha         1 5JN       0.126000
     45 H15          4.1620    -0.6100    -1.4820 hn         1 5JN       0.145000
     46 H16          3.6210    -3.9100    -0.9420 hc         1 5JN       0.062200
     47 H17          3.3770    -2.4940    -2.0040 hc         1 5JN       0.062200
     48 H18          1.3760    -1.0570    -1.7780 ha         1 5JN       0.113000
     49 H19         -0.9630    -0.8990    -1.0770 ha         1 5JN       0.120500
     50 H20         -4.4910    -1.8650    -1.6480 hc         1 5JN       0.058033
     51 H21         -2.7580    -1.8290    -1.9640 hc         1 5JN       0.058033
     52 H22         -3.5220    -3.3260    -1.3960 hc         1 5JN       0.058033
     53 H23         -4.0180     2.2300     0.8630 h1         1 5JN       0.071700
     54 H24         -3.0270     2.2680    -0.6140 h1         1 5JN       0.071700
     55 H25         -5.0190     3.5730    -1.0500 h1         1 5JN       0.077700
     56 H26         -5.1590     2.0630    -1.9830 h1         1 5JN       0.077700
     57 C2           6.3400     3.7650    -1.2770 c3         1 5JN      -0.047800
@<TRIPOS>BOND
     1     1     3 1   
     2     1    31 1   
     3     1    32 1   
     4     1    33 1   
     5     2     3 ar  
     6     2    12 ar  
     7     2    34 1   
     8     3     4 ar  
     9     4     5 ar  
    10     4    35 1   
    11     5    13 ar  
    12     5    14 1   
    13     6     9 ar  
    14     6    17 1   
    15     6    18 ar  
    16     7     8 1   
    17     7    39 1   
    18     7    40 1   
    19     7    41 1   
    20     8    21 1   
    21     8    22 1   
    22     8    23 1   
    23     9    10 ar  
    24     9    42 1   
    25    10    20 ar  
    26    10    43 1   
    27    11    29 1   
    28    12    13 ar  
    29    12    57 1   
    30    13    44 1   
    31    14    15 1   
    32    14    45 1   
    33    15    16 2   
    34    15    17 1   
    35    17    46 1   
    36    17    47 1   
    37    18    19 ar  
    38    18    48 1   
    39    19    20 ar  
    40    19    49 1   
    41    20    21 1   
    42    22    50 1   
    43    22    51 1   
    44    22    52 1   
    45    23    24 2   
    46    23    25 1   
    47    25    26 1   
    48    26    27 1   
    49    26    53 1   
    50    26    54 1   
    51    27    28 1   
    52    27    55 1   
    53    27    56 1   
    54    28    29 1   
    55    29    30 1   
    56    36    57 1   
    57    37    57 1   
    58    38    57 1   
@<TRIPOS>SUBSTRUCTURE
     1 5JN         1 TEMP              0 ****  ****    0 ROOT
