@<TRIPOS>MOLECULE
5JN
   57    58     1     0     0
SMALL
abcg2


@<TRIPOS>ATOM
      1 C1           7.2790     1.5560     3.1170 c3         1 5JN      -0.047800
      2 C6           8.0940     1.8640     0.7600 ca         1 5JN      -0.138000
      3 C5           7.1300     1.3810     1.6330 ca         1 5JN      -0.044800
      4 C4           5.9960     0.7430     1.1280 ca         1 5JN      -0.156000
      5 C3           5.8350     0.5970    -0.2470 ca         1 5JN      -0.013000
      6 C13          1.4020    -1.6140    -0.7800 ca         1 5JN      -0.107300
      7 C21         -4.6310    -2.7990     1.1670 c3         1 5JN      -0.101100
      8 C20         -3.5930    -2.0280     0.3460 c3         1 5JN       0.150000
      9 C18          1.1710    -2.7270     0.0250 ca         1 5JN      -0.057000
     10 C17         -0.0900    -3.0030     0.5210 ca         1 5JN      -0.161500
     11 O30         -8.0900     2.3840    -1.8790 o          1 5JN      -0.367500
     12 C7           7.9460     1.7290    -0.6200 ca         1 5JN      -0.044800
     13 C8           6.8140     1.0980    -1.1100 ca         1 5JN      -0.156000
     14 N9           4.7380    -0.0270    -0.8530 ns         1 5JN      -0.151000
     15 C10          3.6810    -0.6650    -0.2910 c          1 5JN       0.605100
     16 O11          3.4840    -0.7460     0.9060 o          1 5JN      -0.564100
     17 C12          2.7680    -1.3190    -1.3180 c3         1 5JN      -0.107100
     18 C14          0.3260    -0.7840    -1.0590 ca         1 5JN      -0.057000
     19 C15         -0.9480    -1.0430    -0.5650 ca         1 5JN      -0.161500
     20 C16         -1.1650    -2.1620     0.2320 ca         1 5JN       0.154100
     21 O19         -2.3440    -2.5300     0.7860 os         1 5JN      -0.336100
     22 C22         -3.8330    -2.2800    -1.1410 c3         1 5JN      -0.101100
     23 C23         -3.7150    -0.5620     0.7720 c          1 5JN       0.561100
     24 O24         -3.1030    -0.0780     1.6870 o          1 5JN      -0.452000
     25 O25         -4.6200     0.0850     0.0580 os         1 5JN      -0.442100
     26 C26         -4.9210     1.4310     0.4280 c3         1 5JN       0.159600
     27 C27         -5.9470     1.9560    -0.5370 c3         1 5JN       0.144600
     28 O28         -7.1390     1.1780    -0.3190 os         1 5JN      -0.382000
     29 N29         -8.1970     1.4930    -1.0880 no         1 5JN       0.786000
     30 O31         -9.1530     0.8120    -0.8710 o          1 5JN      -0.367500
     31 H1           6.6060     2.3330     3.4870 hc         1 5JN       0.043200
     32 H2           7.0340     0.6400     3.6550 hc         1 5JN       0.043200
     33 H3           8.2930     1.8460     3.3860 hc         1 5JN       0.043200
     34 H4           8.9770     2.3540     1.1560 ha         1 5JN       0.112000
     35 H5           5.2510     0.3700     1.8130 ha         1 5JN       0.126000
     36 H6           9.8470     1.5370    -1.6030 hc         1 5JN       0.043200
     37 H7           8.6250     2.3490    -2.5700 hc         1 5JN       0.043200
     38 H8           9.4030     3.1940    -1.2310 hc         1 5JN       0.043200
     39 H9          -4.4750    -2.6630     2.2370 hc         1 5JN       0.058033
     40 H10         -5.6380    -2.4690     0.9210 hc         1 5JN       0.058033
     41 H11         -4.5580    -3.8620     0.9390 hc         1 5JN       0.058033
     42 H12          1.9840    -3.4050     0.2560 ha         1 5JN       0.113000
     43 H13         -0.2530    -3.8780     1.1370 ha         1 5JN       0.120500
     44 H14          6.6870     0.9860    -2.1820 ha         1 5JN       0.126000
     45 H15          4.7670    -0.0330    -1.8610 hn         1 5JN       0.145000
     46 H16          3.2600    -2.2450    -1.6330 hc         1 5JN       0.062200
     47 H17          2.7040    -0.6950    -2.2110 hc         1 5JN       0.062200
     48 H18          0.4690     0.0890    -1.6840 ha         1 5JN       0.113000
     49 H19         -1.7390    -0.3560    -0.8300 ha         1 5JN       0.120500
     50 H20         -4.8660    -2.0600    -1.4010 hc         1 5JN       0.058033
     51 H21         -3.1940    -1.6950    -1.7980 hc         1 5JN       0.058033
     52 H22         -3.6580    -3.3350    -1.3500 hc         1 5JN       0.058033
     53 H23         -5.2830     1.4760     1.4570 h1         1 5JN       0.071700
     54 H24         -4.0340     2.0630     0.3500 h1         1 5JN       0.071700
     55 H25         -6.1300     3.0090    -0.3170 h1         1 5JN       0.077700
     56 H26         -5.6070     1.8570    -1.5690 h1         1 5JN       0.077700
     57 C2           9.0070     2.2320    -1.5570 c3         1 5JN      -0.047800
@<TRIPOS>BOND
     1     1     3 1   
     2     1    31 1   
     3     1    32 1   
     4     1    33 1   
     5     2     3 ar  
     6     2    12 ar  
     7     2    34 1   
     8     3     4 ar  
     9     4     5 ar  
    10     4    35 1   
    11     5    13 ar  
    12     5    14 1   
    13     6     9 ar  
    14     6    17 1   
    15     6    18 ar  
    16     7     8 1   
    17     7    39 1   
    18     7    40 1   
    19     7    41 1   
    20     8    21 1   
    21     8    22 1   
    22     8    23 1   
    23     9    10 ar  
    24     9    42 1   
    25    10    20 ar  
    26    10    43 1   
    27    11    29 1   
    28    12    13 ar  
    29    12    57 1   
    30    13    44 1   
    31    14    15 1   
    32    14    45 1   
    33    15    16 2   
    34    15    17 1   
    35    17    46 1   
    36    17    47 1   
    37    18    19 ar  
    38    18    48 1   
    39    19    20 ar  
    40    19    49 1   
    41    20    21 1   
    42    22    50 1   
    43    22    51 1   
    44    22    52 1   
    45    23    24 2   
    46    23    25 1   
    47    25    26 1   
    48    26    27 1   
    49    26    53 1   
    50    26    54 1   
    51    27    28 1   
    52    27    55 1   
    53    27    56 1   
    54    28    29 1   
    55    29    30 1   
    56    36    57 1   
    57    37    57 1   
    58    38    57 1   
@<TRIPOS>SUBSTRUCTURE
     1 5JN         1 TEMP              0 ****  ****    0 ROOT
