@<TRIPOS>MOLECULE
5JP
   16    15     1     0     0
SMALL
abcg2


@<TRIPOS>ATOM
      1 O            1.2660    -1.1520     1.0860 o          1 5JP      -0.729000
      2 C            1.1920    -0.5120     0.0220 c          1 5JP       0.735000
      3 CA          -0.2170    -0.1880    -0.5380 c3         1 5JP       0.035500
      4 CB          -0.3910     1.3270    -0.6030 c3         1 5JP       0.140600
      5 OG          -0.3330     1.8470     0.7090 oh         1 5JP      -0.647000
      6 N           -1.2470    -0.9060     0.1850 n7         1 5JP      -0.852400
      7 CN          -2.6060    -0.6200    -0.2160 c3         1 5JP       0.164100
      8 OXT          2.1480    -0.0840    -0.6560 o          1 5JP      -0.729000
      9 HA          -0.2410    -0.5300    -1.5820 h1         1 5JP       0.040700
     10 HB2          0.3980     1.7390    -1.2420 h1         1 5JP       0.002200
     11 HB3         -1.3470     1.5750    -1.0830 h1         1 5JP       0.002200
     12 HG          -0.4760     2.7960     0.6610 ho         1 5JP       0.405000
     13 H           -1.1300    -0.7510     1.1760 hn         1 5JP       0.436000
     14 H7          -2.9490     0.4080    -0.0380 h1         1 5JP      -0.000967
     15 H8          -2.7270    -0.8190    -1.2840 h1         1 5JP      -0.000967
     16 H9          -3.2910    -1.2840     0.3140 h1         1 5JP      -0.000967
@<TRIPOS>BOND
     1     1     2 1   
     2     2     3 1   
     3     2     8 1   
     4     3     4 1   
     5     3     6 1   
     6     3     9 1   
     7     4     5 1   
     8     4    10 1   
     9     4    11 1   
    10     5    12 1   
    11     6     7 1   
    12     6    13 1   
    13     7    14 1   
    14     7    15 1   
    15     7    16 1   
@<TRIPOS>SUBSTRUCTURE
     1 5JP         1 TEMP              0 ****  ****    0 ROOT
