@<TRIPOS>MOLECULE
5JP
   16    15     1     0     0
SMALL
No Charge or Current Charge


@<TRIPOS>ATOM
      1 O            1.5170    -0.8510     1.0650 o          1 5JP      -0.729000
      2 C            1.2850    -0.5470    -0.1010 c          1 5JP       0.735000
      3 CA          -0.1900    -0.1680    -0.5280 c3         1 5JP       0.035500
      4 CB          -0.3490     1.3820    -0.4930 c3         1 5JP       0.140600
      5 OG          -0.4700     1.8720     0.8520 oh         1 5JP      -0.647000
      6 N           -1.2910    -0.8630     0.2490 n7         1 5JP      -0.852400
      7 CN          -2.6600    -0.7140    -0.2740 c3         1 5JP       0.164100
      8 OXT          2.1290    -0.6430    -0.9850 o          1 5JP      -0.729000
      9 HA          -0.2690    -0.4700    -1.5810 h1         1 5JP       0.040700
     10 HB2          0.5150     1.8440    -0.9880 h1         1 5JP       0.002200
     11 HB3         -1.2390     1.6640    -1.0700 h1         1 5JP       0.002200
     12 HG          -0.6010     2.8430     0.7910 ho         1 5JP       0.405000
     13 H           -1.2650    -0.4690     1.1990 hn         1 5JP       0.436000
     14 H7          -2.9730     0.3380    -0.2650 h1         1 5JP      -0.000967
     15 H8          -2.7250    -1.0880    -1.3040 h1         1 5JP      -0.000967
     16 H9          -3.3660    -1.2830     0.3440 h1         1 5JP      -0.000967
@<TRIPOS>BOND
     1     1     2 1   
     2     2     3 1   
     3     2     8 1   
     4     3     4 1   
     5     3     6 1   
     6     3     9 1   
     7     4     5 1   
     8     4    10 1   
     9     4    11 1   
    10     5    12 1   
    11     6     7 1   
    12     6    13 1   
    13     7    14 1   
    14     7    15 1   
    15     7    16 1   
@<TRIPOS>SUBSTRUCTURE
     1 5JP         1 TEMP              0 ****  ****    0 ROOT
