@<TRIPOS>MOLECULE
5JQ
   16    17     1     0     0
SMALL
bcc


@<TRIPOS>ATOM
      1 C2          -0.5030     0.7050    -0.0280 cc         1 5JQ       0.141200
      2 C3          -2.7420     0.5230    -0.0330 c          1 5JQ       0.798500
      3 C4           1.8180     0.3180    -0.0120 cs         1 5JQ       0.585400
      4 C5           0.2250    -1.6020     0.0050 c          1 5JQ       0.755700
      5 O2           0.1050    -2.8110     0.0230 o          1 5JQ      -0.576500
      6 N4           1.4940    -0.9990     0.0010 ns         1 5JQ      -0.542500
      7 S1           3.3900     0.8560    -0.0110 s          1 5JQ      -0.543400
      8 N3           0.7660     1.1750    -0.0280 ns         1 5JQ      -0.393100
      9 C1          -0.8000    -0.6220    -0.0140 cd         1 5JQ      -0.208600
     10 N2          -2.1800    -0.7180    -0.0160 ns         1 5JQ      -0.420100
     11 O1          -3.9160     0.8290    -0.0410 o          1 5JQ      -0.612500
     12 N1          -1.6580     1.4040    -0.0410 ns         1 5JQ      -0.462100
     13 H1           2.2810    -1.6370     0.0130 hn         1 5JQ       0.366500
     14 H2           0.9610     2.1670    -0.0370 hn         1 5JQ       0.372500
     15 H3          -2.7120    -1.5730    -0.0110 hn         1 5JQ       0.375500
     16 H4          -1.7570     2.4080    -0.0480 hn         1 5JQ       0.363500
@<TRIPOS>BOND
     1     1     8 1   
     2     1     9 2   
     3     1    12 1   
     4     2    10 1   
     5     2    11 2   
     6     2    12 1   
     7     3     6 1   
     8     3     7 2   
     9     3     8 1   
    10     4     5 2   
    11     4     6 1   
    12     4     9 1   
    13     6    13 1   
    14     8    14 1   
    15     9    10 1   
    16    10    15 1   
    17    12    16 1   
@<TRIPOS>SUBSTRUCTURE
     1 5JQ         1 TEMP              0 ****  ****    0 ROOT
