@<TRIPOS>MOLECULE
5JQ
   16    17     1     0     0
SMALL
No Charge or Current Charge


@<TRIPOS>ATOM
      1 C2          -0.5110     0.7560    -0.0270 cc         1 5JQ       0.141200
      2 C3          -2.7880     0.5350    -0.0340 c          1 5JQ       0.589000
      3 C4           1.8670     0.3030    -0.0120 cs         1 5JQ       0.451400
      4 C5           0.2800    -1.5940     0.0050 c          1 5JQ       0.613200
      5 O2           0.0950    -2.8010     0.0180 o          1 5JQ      -0.501000
      6 N4           1.5310    -1.0250     0.0030 ns         1 5JQ      -0.408500
      7 S1           3.4450     0.8330    -0.0110 s          1 5JQ      -0.543400
      8 N3           0.7970     1.1590    -0.0260 ns         1 5JQ      -0.439600
      9 C1          -0.7890    -0.5700    -0.0120 cd         1 5JQ      -0.208600
     10 N2          -2.1740    -0.6840    -0.0170 ns         1 5JQ      -0.466600
     11 O1          -3.9760     0.7910    -0.0420 o          1 5JQ      -0.537000
     12 N1          -1.7260     1.3940    -0.0400 ns         1 5JQ      -0.508600
     13 H1           2.2970    -1.6810     0.0140 hn         1 5JQ       0.366500
     14 H2           1.0200     2.1500    -0.0370 hn         1 5JQ       0.486000
     15 H3          -2.7240    -1.5410    -0.0090 hn         1 5JQ       0.489000
     16 H4          -1.8720     2.3970    -0.0520 hn         1 5JQ       0.477000
@<TRIPOS>BOND
     1     1     8 1   
     2     1     9 2   
     3     1    12 1   
     4     2    10 1   
     5     2    11 2   
     6     2    12 1   
     7     3     6 1   
     8     3     7 2   
     9     3     8 1   
    10     4     5 2   
    11     4     6 1   
    12     4     9 1   
    13     6    13 1   
    14     8    14 1   
    15     9    10 1   
    16    10    15 1   
    17    12    16 1   
@<TRIPOS>SUBSTRUCTURE
     1 5JQ         1 TEMP              0 ****  ****    0 ROOT
