@<TRIPOS>MOLECULE
5JR
   88    92     1     0     0
SMALL
No Charge or Current Charge


@<TRIPOS>ATOM
      1 C1          43.4540     2.4530    39.4130 ca         1 5JR      -0.179000
      2 N1          45.2890     2.1070    35.0210 n          1 5JR      -0.391300
      3 O1          41.9200     2.7990    41.1980 os         1 5JR      -0.339100
      4 C2          44.6200     2.7770    38.6890 ca         1 5JR       0.025000
      5 N2          44.8860     2.1180    37.4320 n          1 5JR      -0.254400
      6 O2          45.7030     5.8080    40.4860 os         1 5JR      -0.339100
      7 C3          45.3150     3.9470    39.0530 ca         1 5JR      -0.179000
      8 N3          46.3120    -1.9470    35.1320 nb         1 5JR      -0.263000
      9 C4          44.9430     4.6980    40.1760 ca         1 5JR       0.184100
     10 N4          46.1120     0.1330    33.9520 nb         1 5JR      -0.278000
     11 O4          49.4410     2.5410    31.9550 o          1 5JR      -0.584100
     12 C5          43.8180     4.3170    40.9330 ca         1 5JR      -0.283000
     13 O5          42.2110     6.8410    36.9070 o          1 5JR      -0.610100
     14 C6          43.0630     3.1960    40.5350 ca         1 5JR       0.184100
     15 N6          48.7690     0.4360    32.6200 ns         1 5JR      -0.149000
     16 C7          45.3930     6.6670    41.5970 c3         1 5JR       0.148900
     17 N7          41.7370     3.6460    32.9930 n3         1 5JR      -0.742600
     18 C8          41.4060     3.5080    42.3390 c3         1 5JR       0.148900
     19 N8          41.3530     5.3210    35.4190 n          1 5JR      -0.410800
     20 C9          45.4230    -0.0080    36.2290 ca         1 5JR      -0.318300
     21 C10         45.5860     0.7110    35.0470 ca         1 5JR       0.308900
     22 C11         45.0420     2.8290    36.2130 c          1 5JR       0.625000
     23 C12         44.7890     0.6440    37.4370 c6         1 5JR       0.195300
     24 C13         45.7930    -1.3630    36.2290 ca         1 5JR       0.177900
     25 C14         46.4530    -1.1610    34.0540 ca         1 5JR       0.407900
     26 C15         47.9370    -0.4030    29.0520 ca         1 5JR      -0.093000
     27 C16         47.1060    -1.5180    29.2340 ca         1 5JR      -0.117000
     28 C17         46.8100    -1.9640    30.5320 ca         1 5JR      -0.107000
     29 C18         47.3260    -1.2950    31.6560 ca         1 5JR       0.244000
     30 C19         48.1810    -0.1740    31.4760 ca         1 5JR      -0.014000
     31 C20         48.4780     0.2630    30.1640 ca         1 5JR      -0.106000
     32 C21         49.3550     1.6750    32.8180 c          1 5JR       0.608100
     33 C22         49.9220     1.8880    34.2290 c3         1 5JR      -0.160400
     34 C23         45.3010     2.8390    33.7140 c3         1 5JR       0.108000
     35 C24         44.0600     2.5360    32.8350 c3         1 5JR      -0.099400
     36 C25         42.7080     2.6840    33.5790 c3         1 5JR       0.187800
     37 C26         49.0380     2.8320    35.0730 c3         1 5JR      -0.085100
     38 C27         40.4250     3.6160    33.6900 c6         1 5JR       0.159300
     39 C28         40.5210     4.0950    35.1700 c6         1 5JR       0.077000
     40 C29         42.3740     5.6810    34.3790 c6         1 5JR       0.077000
     41 C30         42.1920     5.0630    32.9630 c6         1 5JR       0.159300
     42 C31         41.4360     5.9140    36.7020 c          1 5JR       0.613100
     43 C32         40.5140     5.3900    37.8260 c3         1 5JR      -0.155400
     44 C33         40.7020     6.0450    39.2130 c3         1 5JR      -0.071100
     45 H1          42.8280     1.6210    39.1050 ha         1 5JR       0.138500
     46 H2          46.1730     4.2710    38.4710 ha         1 5JR       0.138500
     47 H3          43.5210     4.8950    41.8000 ha         1 5JR       0.123000
     48 H4          46.9050    -2.7950    32.9840 hn         1 5JR       0.516000
     49 H5          48.7280    -0.1450    33.4480 hn         1 5JR       0.157000
     50 H6          46.1200     7.4870    41.6570 h1         1 5JR       0.042533
     51 H7          44.3940     7.1060    41.4840 h1         1 5JR       0.042533
     52 H8          45.4300     6.1110    42.5430 h1         1 5JR       0.042533
     53 H10         40.4890     3.0280    42.7030 h1         1 5JR       0.042533
     54 H11         42.1360     3.5110    43.1580 h1         1 5JR       0.042533
     55 H12         41.1650     4.5460    42.0770 h1         1 5JR       0.042533
     56 H13         43.7290     0.3560    37.4670 h1         1 5JR       0.051700
     57 H14         45.2650     0.2580    38.3500 h1         1 5JR       0.051700
     58 H15         45.6680    -1.9910    37.1110 h4         1 5JR       0.023100
     59 H16         48.1740    -0.0610    28.0460 ha         1 5JR       0.119000
     60 H17         46.6940    -2.0380    28.3710 ha         1 5JR       0.118000
     61 H18         46.1600    -2.8250    30.6650 ha         1 5JR       0.117000
     62 H19         49.1460     1.1000    29.9890 ha         1 5JR       0.137000
     63 H20         49.9940     0.9280    34.7550 hc         1 5JR       0.062200
     64 H21         50.9180     2.3380    34.1420 hc         1 5JR       0.062200
     65 H22         46.2100     2.5800    33.1550 h1         1 5JR       0.079700
     66 H23         45.3490     3.9230    33.8740 h1         1 5JR       0.079700
     67 H24         44.1340     1.5050    32.4690 hc         1 5JR       0.064700
     68 H25         44.0840     3.1690    31.9420 hc         1 5JR       0.064700
     69 H26         42.9000     2.9520    34.6240 h1         1 5JR       0.027200
     70 H27         42.2460     1.6880    33.6080 h1         1 5JR       0.027200
     71 H28         49.4900     3.0030    36.0580 hc         1 5JR       0.043033
     72 H29         48.9170     3.8030    34.5790 hc         1 5JR       0.043033
     73 H30         48.0450     2.3960    35.2290 hc         1 5JR       0.043033
     74 H31         39.7100     4.2640    33.1630 h1         1 5JR       0.054200
     75 H32         39.9970     2.6030    33.6690 h1         1 5JR       0.054200
     76 H33         39.4990     4.2670    35.5320 h1         1 5JR       0.052450
     77 H34         40.9370     3.2740    35.7710 h1         1 5JR       0.052450
     78 H35         43.3580     5.3770    34.7550 h1         1 5JR       0.052450
     79 H36         42.4090     6.7750    34.2730 h1         1 5JR       0.052450
     80 H37         43.1320     5.1710    32.4040 h1         1 5JR       0.054200
     81 H38         41.4490     5.6710    32.4240 h1         1 5JR       0.054200
     82 H39         39.4770     5.4770    37.4820 hc         1 5JR       0.058200
     83 H40         40.6300     4.3020    37.8880 hc         1 5JR       0.058200
     84 H41         40.0190     5.5950    39.9430 hc         1 5JR       0.035700
     85 H42         41.7280     5.9030    39.5720 hc         1 5JR       0.035700
     86 H43         40.4950     7.1210    39.1660 hc         1 5JR       0.035700
     87 O3          44.9460     4.0480    36.1860 o          1 5JR      -0.549000
     88 N5          46.9790    -1.7780    32.9300 nu         1 5JR      -0.954900
@<TRIPOS>BOND
     1     1     4 ar  
     2     1    14 ar  
     3     1    45 1   
     4     2    21 1   
     5     2    22 1   
     6     2    34 1   
     7     3    14 1   
     8     3    18 1   
     9     4     5 1   
    10     4     7 ar  
    11     5    22 1   
    12     5    23 1   
    13     6     9 1   
    14     6    16 1   
    15     7     9 ar  
    16     7    46 1   
    17     8    24 ar  
    18     8    25 ar  
    19     9    12 ar  
    20    10    21 ar  
    21    10    25 ar  
    22    11    32 2   
    23    12    14 ar  
    24    12    47 1   
    25    13    42 2   
    26    15    30 1   
    27    15    32 1   
    28    15    49 1   
    29    16    50 1   
    30    16    51 1   
    31    16    52 1   
    32    17    36 1   
    33    17    38 1   
    34    17    41 1   
    35    18    53 1   
    36    18    54 1   
    37    18    55 1   
    38    19    39 1   
    39    19    40 1   
    40    19    42 1   
    41    20    21 ar  
    42    20    23 1   
    43    20    24 ar  
    44    22    87 2   
    45    23    56 1   
    46    23    57 1   
    47    24    58 1   
    48    25    88 1   
    49    26    27 ar  
    50    26    31 ar  
    51    26    59 1   
    52    27    28 ar  
    53    27    60 1   
    54    28    29 ar  
    55    28    61 1   
    56    29    30 ar  
    57    29    88 1   
    58    30    31 ar  
    59    31    62 1   
    60    32    33 1   
    61    33    37 1   
    62    33    63 1   
    63    33    64 1   
    64    34    35 1   
    65    34    65 1   
    66    34    66 1   
    67    35    36 1   
    68    35    67 1   
    69    35    68 1   
    70    36    69 1   
    71    36    70 1   
    72    37    71 1   
    73    37    72 1   
    74    37    73 1   
    75    38    39 1   
    76    38    74 1   
    77    38    75 1   
    78    39    76 1   
    79    39    77 1   
    80    40    41 1   
    81    40    78 1   
    82    40    79 1   
    83    41    80 1   
    84    41    81 1   
    85    42    43 1   
    86    43    44 1   
    87    43    82 1   
    88    43    83 1   
    89    44    84 1   
    90    44    85 1   
    91    44    86 1   
    92    48    88 1   
@<TRIPOS>SUBSTRUCTURE
     1 5JR         1 TEMP              0 ****  ****    0 ROOT
