@<TRIPOS>MOLECULE
5JR
   88    92     1     0     0
SMALL
abcg2


@<TRIPOS>ATOM
      1 C1          43.1500     2.5530    38.9440 ca         1 5JR      -0.179000
      2 N1          45.4860     2.1430    35.1680 n          1 5JR      -0.391300
      3 O1          41.3190     2.8420    40.3410 os         1 5JR      -0.339100
      4 C2          44.4520     2.8580    38.5890 ca         1 5JR       0.025000
      5 N2          45.0250     2.1890    37.4710 n          1 5JR      -0.254400
      6 O2          45.4330     5.2390    41.0910 os         1 5JR      -0.339100
      7 C3          45.2140     3.7540    39.3200 ca         1 5JR      -0.179000
      8 N3          46.8520    -1.7120    35.4110 nb         1 5JR      -0.263000
      9 C4          44.6450     4.3720    40.4310 ca         1 5JR       0.184100
     10 N4          46.2700     0.2180    34.1630 nb         1 5JR      -0.278000
     11 O4          48.6760     2.5890    32.1530 o          1 5JR      -0.584100
     12 C5          43.3330     4.0860    40.8070 ca         1 5JR      -0.283000
     13 O5          42.0560     7.3780    36.1480 o          1 5JR      -0.610100
     14 C6          42.5890     3.1760    40.0570 ca         1 5JR       0.184100
     15 N6          48.8430     0.3400    32.3940 ns         1 5JR      -0.149000
     16 C7          44.9090     5.9270    42.2090 c3         1 5JR       0.148900
     17 N7          42.0020     3.5030    33.2320 n3         1 5JR      -0.742600
     18 C8          40.6860     3.4320    41.4590 c3         1 5JR       0.148900
     19 N8          41.2780     5.5040    35.1520 n          1 5JR      -0.410800
     20 C9          46.1170     0.2640    36.5310 ca         1 5JR      -0.318300
     21 C10         45.9650     0.8570    35.2780 ca         1 5JR       0.308900
     22 C11         44.9780     2.8260    36.2710 c          1 5JR       0.625000
     23 C12         45.8750     1.0490    37.7710 c6         1 5JR       0.195300
     24 C13         46.5460    -1.0460    36.5170 ca         1 5JR       0.177900
     25 C14         46.7210    -1.0260    34.2770 ca         1 5JR       0.407900
     26 C15         46.7950     0.0370    29.3250 ca         1 5JR      -0.093000
     27 C16         45.9570    -1.0130    29.6750 ca         1 5JR      -0.117000
     28 C17         46.0560    -1.5730    30.9390 ca         1 5JR      -0.107000
     29 C18         46.9870    -1.0970    31.8520 ca         1 5JR       0.244000
     30 C19         47.8550    -0.0590    31.4870 ca         1 5JR      -0.014000
     31 C20         47.7410     0.5100    30.2220 ca         1 5JR      -0.106000
     32 C21         49.1650     1.6220    32.7100 c          1 5JR       0.608100
     33 C22         50.1550     1.7610    33.8440 c3         1 5JR      -0.160400
     34 C23         45.3650     2.7570    33.8430 c3         1 5JR       0.108000
     35 C24         44.1790     2.2490    33.0210 c3         1 5JR      -0.099400
     36 C25         42.7840     2.3470    33.6460 c3         1 5JR       0.187800
     37 C26         49.4480     2.1530    35.1410 c3         1 5JR      -0.085100
     38 C27         40.6950     3.5250    33.8610 c6         1 5JR       0.159300
     39 C28         40.6980     4.1660    35.2460 c6         1 5JR       0.077000
     40 C29         41.7630     5.8890    33.8380 c6         1 5JR       0.077000
     41 C30         42.6760     4.8010    33.2970 c6         1 5JR       0.159300
     42 C31         41.5350     6.2720    36.2360 c          1 5JR       0.613100
     43 C32         41.1490     5.6890    37.5800 c3         1 5JR      -0.155400
     44 C33         41.4130     6.6330    38.7390 c3         1 5JR      -0.071100
     45 H1          42.5720     1.8480    38.3600 ha         1 5JR       0.138500
     46 H2          46.2330     3.9810    39.0290 ha         1 5JR       0.138500
     47 H3          42.8930     4.5720    41.6660 ha         1 5JR       0.123000
     48 H4          47.2190    -2.6680    33.2090 hn         1 5JR       0.516000
     49 H5          49.2080    -0.3870    32.9930 hn         1 5JR       0.157000
     50 H6          45.7010     6.5800    42.5660 h1         1 5JR       0.042533
     51 H7          44.0420     6.5380    41.9440 h1         1 5JR       0.042533
     52 H8          44.6270     5.2440    43.0150 h1         1 5JR       0.042533
     53 H10         39.6840     3.0140    41.5010 h1         1 5JR       0.042533
     54 H11         41.2040     3.1970    42.3930 h1         1 5JR       0.042533
     55 H12         40.6090     4.5180    41.3610 h1         1 5JR       0.042533
     56 H13         45.3770     0.4360    38.5250 h1         1 5JR       0.051700
     57 H14         46.8200     1.3910    38.2110 h1         1 5JR       0.051700
     58 H15         46.6560    -1.5870    37.4520 h4         1 5JR       0.023100
     59 H16         46.7250     0.4850    28.3430 ha         1 5JR       0.119000
     60 H17         45.2260    -1.3890    28.9720 ha         1 5JR       0.118000
     61 H18         45.3970    -2.3810    31.2340 ha         1 5JR       0.117000
     62 H19         48.4130     1.3000    29.9220 ha         1 5JR       0.137000
     63 H20         50.7180     0.8380    33.9940 hc         1 5JR       0.062200
     64 H21         50.8730     2.5350    33.5680 hc         1 5JR       0.062200
     65 H22         46.2820     2.5460    33.2960 h1         1 5JR       0.079700
     66 H23         45.3280     3.8320    33.9880 h1         1 5JR       0.079700
     67 H24         44.3700     1.2020    32.7850 hc         1 5JR       0.064700
     68 H25         44.1920     2.7730    32.0620 hc         1 5JR       0.064700
     69 H26         42.8620     2.2570    34.7400 h1         1 5JR       0.027200
     70 H27         42.2190     1.4660    33.3300 h1         1 5JR       0.027200
     71 H28         50.1780     2.3170    35.9320 hc         1 5JR       0.043033
     72 H29         48.8750     3.0720    35.0200 hc         1 5JR       0.043033
     73 H30         48.7690     1.3680    35.4750 hc         1 5JR       0.043033
     74 H31         39.9750     4.0410    33.2200 h1         1 5JR       0.054200
     75 H32         40.3270     2.5020    33.9550 h1         1 5JR       0.054200
     76 H33         39.6750     4.2080    35.6290 h1         1 5JR       0.052450
     77 H34         41.2750     3.5450    35.9360 h1         1 5JR       0.052450
     78 H35         42.3240     6.8160    33.9250 h1         1 5JR       0.052450
     79 H36         40.9280     6.0890    33.1600 h1         1 5JR       0.052450
     80 H37         43.5440     4.7700    33.9580 h1         1 5JR       0.054200
     81 H38         43.0390     5.1010    32.3080 h1         1 5JR       0.054200
     82 H39         40.0960     5.3950    37.5640 hc         1 5JR       0.058200
     83 H40         41.7060     4.7580    37.7270 hc         1 5JR       0.058200
     84 H41         41.1150     6.1610    39.6750 hc         1 5JR       0.035700
     85 H42         42.4690     6.8850    38.8210 hc         1 5JR       0.035700
     86 H43         40.8520     7.5610    38.6420 hc         1 5JR       0.035700
     87 O3          44.4780     3.9300    36.1540 o          1 5JR      -0.549000
     88 N5          47.0850    -1.6710    33.1350 nu         1 5JR      -0.954900
@<TRIPOS>BOND
     1     1     4 ar  
     2     1    14 ar  
     3     1    45 1   
     4     2    21 1   
     5     2    22 1   
     6     2    34 1   
     7     3    14 1   
     8     3    18 1   
     9     4     5 1   
    10     4     7 ar  
    11     5    22 1   
    12     5    23 1   
    13     6     9 1   
    14     6    16 1   
    15     7     9 ar  
    16     7    46 1   
    17     8    24 ar  
    18     8    25 ar  
    19     9    12 ar  
    20    10    21 ar  
    21    10    25 ar  
    22    11    32 2   
    23    12    14 ar  
    24    12    47 1   
    25    13    42 2   
    26    15    30 1   
    27    15    32 1   
    28    15    49 1   
    29    16    50 1   
    30    16    51 1   
    31    16    52 1   
    32    17    36 1   
    33    17    38 1   
    34    17    41 1   
    35    18    53 1   
    36    18    54 1   
    37    18    55 1   
    38    19    39 1   
    39    19    40 1   
    40    19    42 1   
    41    20    21 ar  
    42    20    23 1   
    43    20    24 ar  
    44    22    87 2   
    45    23    56 1   
    46    23    57 1   
    47    24    58 1   
    48    25    88 1   
    49    26    27 ar  
    50    26    31 ar  
    51    26    59 1   
    52    27    28 ar  
    53    27    60 1   
    54    28    29 ar  
    55    28    61 1   
    56    29    30 ar  
    57    29    88 1   
    58    30    31 ar  
    59    31    62 1   
    60    32    33 1   
    61    33    37 1   
    62    33    63 1   
    63    33    64 1   
    64    34    35 1   
    65    34    65 1   
    66    34    66 1   
    67    35    36 1   
    68    35    67 1   
    69    35    68 1   
    70    36    69 1   
    71    36    70 1   
    72    37    71 1   
    73    37    72 1   
    74    37    73 1   
    75    38    39 1   
    76    38    74 1   
    77    38    75 1   
    78    39    76 1   
    79    39    77 1   
    80    40    41 1   
    81    40    78 1   
    82    40    79 1   
    83    41    80 1   
    84    41    81 1   
    85    42    43 1   
    86    43    44 1   
    87    43    82 1   
    88    43    83 1   
    89    44    84 1   
    90    44    85 1   
    91    44    86 1   
    92    48    88 1   
@<TRIPOS>SUBSTRUCTURE
     1 5JR         1 TEMP              0 ****  ****    0 ROOT
