@<TRIPOS>MOLECULE
5JT
   31    33     1     0     0
SMALL
abcg2


@<TRIPOS>ATOM
      1 C2          -1.7630    -2.1600     0.4470 ca         1 5JT       0.181900
      2 C4          -0.2700    -0.5810    -0.3300 ca         1 5JT       0.447900
      3 C5          -1.2580     0.4110    -0.0950 ca         1 5JT      -0.252800
      4 C6          -2.4800    -0.0800     0.4010 ca         1 5JT       0.144500
      5 C8          -2.6520     2.1310     0.2800 cc         1 5JT      -0.182100
      6 N10          0.9520    -0.3390    -0.8510 nh         1 5JT      -0.782300
      7 C11          1.3580     0.9190    -1.4460 c6         1 5JT       0.219800
      8 C12          2.3740     1.6320    -0.5640 c6         1 5JT      -0.102400
      9 C13          3.5680     0.7100    -0.3270 c6         1 5JT      -0.116400
     10 C14          3.1290    -0.6580     0.2150 c6         1 5JT       0.136500
     11 N1          -0.5610    -1.8510    -0.0220 nb         1 5JT      -0.295000
     12 N3          -2.7780    -1.3530     0.6720 nb         1 5JT      -0.235000
     13 N7          -3.3050     0.9720     0.6040 na         1 5JT      -0.317400
     14 C9          -1.3930     1.8390    -0.1490 cd         1 5JT      -0.210200
     15 C15          2.0620    -1.2660    -0.6980 c6         1 5JT       0.226800
     16 N16          2.6370    -0.6350     1.5870 n8         1 5JT      -0.985200
     17 H1          -1.9250    -3.2110     0.6650 h5         1 5JT       0.044100
     18 H2          -3.1390     3.0860     0.3900 h4         1 5JT       0.215000
     19 H3           1.8230     0.6890    -2.4110 h1         1 5JT       0.055700
     20 H4           0.4940     1.5360    -1.6720 h1         1 5JT       0.055700
     21 H5           2.6940     2.5570    -1.0470 hc         1 5JT       0.048700
     22 H6           1.9060     1.9160     0.3830 hc         1 5JT       0.048700
     23 H7           4.0990     0.5680    -1.2740 hc         1 5JT       0.044700
     24 H8           4.2810     1.1690     0.3640 hc         1 5JT       0.044700
     25 H9           3.9890    -1.3340     0.1920 h1         1 5JT       0.065700
     26 H10         -4.2440     0.9090     0.9640 hn         1 5JT       0.361000
     27 H11         -0.6680     2.5780    -0.4440 ha         1 5JT       0.200000
     28 H12          1.7030    -2.2050    -0.2900 h1         1 5JT       0.074200
     29 H13          2.4930    -1.4680    -1.6830 h1         1 5JT       0.074200
     30 H14          3.3520    -0.2460     2.1900 hn         1 5JT       0.394500
     31 H15          1.8470    -0.0040     1.6670 hn         1 5JT       0.394500
@<TRIPOS>BOND
     1     1    11 ar  
     2     1    12 ar  
     3     1    17 1   
     4     2     3 ar  
     5     2     6 1   
     6     2    11 ar  
     7     3     4 ar  
     8     3    14 1   
     9     4    12 ar  
    10     4    13 1   
    11     5    13 1   
    12     5    14 2   
    13     5    18 1   
    14     6     7 1   
    15     6    15 1   
    16     7     8 1   
    17     7    19 1   
    18     7    20 1   
    19     8     9 1   
    20     8    21 1   
    21     8    22 1   
    22     9    10 1   
    23     9    23 1   
    24     9    24 1   
    25    10    15 1   
    26    10    16 1   
    27    10    25 1   
    28    13    26 1   
    29    14    27 1   
    30    15    28 1   
    31    15    29 1   
    32    16    30 1   
    33    16    31 1   
@<TRIPOS>SUBSTRUCTURE
     1 5JT         1 TEMP              0 ****  ****    0 ROOT
