@<TRIPOS>MOLECULE
5JT
   31    33     1     0     0
SMALL
No Charge or Current Charge


@<TRIPOS>ATOM
      1 C2          -2.0560    -2.2280    -0.5390 ca         1 5JT       0.181900
      2 C4          -0.4310    -0.6120    -0.2950 ca         1 5JT       0.447900
      3 C5          -1.4580     0.2710     0.0830 ca         1 5JT      -0.252800
      4 C6          -2.7600    -0.1570     0.1210 ca         1 5JT       0.144500
      5 C8          -2.7570     2.0620     0.7820 cc         1 5JT      -0.182100
      6 N10          0.9240    -0.2250    -0.3610 nh         1 5JT      -0.782300
      7 C11          1.3160     0.8850    -1.2740 c6         1 5JT       0.219800
      8 C12          2.6020     1.5910    -0.7730 c6         1 5JT      -0.102400
      9 C13          3.7610     0.5790    -0.5580 c6         1 5JT      -0.116400
     10 C14          3.3270    -0.5870     0.3670 c6         1 5JT       0.136500
     11 N1          -0.7450    -1.8890    -0.6040 nb         1 5JT      -0.295000
     12 N3          -3.0890    -1.4230    -0.1930 nb         1 5JT      -0.235000
     13 N7          -3.5410     0.9140     0.5290 na         1 5JT      -0.317400
     14 C9          -1.4650     1.6520     0.5050 cd         1 5JT      -0.210200
     15 C15          2.0130    -1.2440    -0.1810 c6         1 5JT       0.226800
     16 N16          3.1540    -0.0830     1.7530 n8         1 5JT      -0.985200
     17 H1          -2.3050    -3.2570    -0.7920 h5         1 5JT       0.044100
     18 H2          -3.1600     3.0140     1.1240 h4         1 5JT       0.215000
     19 H3           1.4950     0.4880    -2.2850 h1         1 5JT       0.055700
     20 H4           0.5120     1.6290    -1.3630 h1         1 5JT       0.055700
     21 H5           2.9060     2.3560    -1.5000 hc         1 5JT       0.048700
     22 H6           2.3850     2.1250     0.1620 hc         1 5JT       0.048700
     23 H7           4.0710     0.1710    -1.5310 hc         1 5JT       0.044700
     24 H8           4.6430     1.0920    -0.1480 hc         1 5JT       0.044700
     25 H9           4.1320    -1.3400     0.3850 h1         1 5JT       0.065700
     26 H10         -4.5500     0.8620     0.6360 hn         1 5JT       0.361000
     27 H11         -0.5840     2.2830     0.6120 ha         1 5JT       0.200000
     28 H12          1.7000    -2.0310     0.5220 h1         1 5JT       0.074200
     29 H13          2.2320    -1.7380    -1.1400 h1         1 5JT       0.074200
     30 H14          3.8130     0.6880     1.9010 hn         1 5JT       0.394500
     31 H15          2.2370     0.3810     1.7750 hn         1 5JT       0.394500
@<TRIPOS>BOND
     1     1    11 ar  
     2     1    12 ar  
     3     1    17 1   
     4     2     3 ar  
     5     2     6 1   
     6     2    11 ar  
     7     3     4 ar  
     8     3    14 1   
     9     4    12 ar  
    10     4    13 1   
    11     5    13 1   
    12     5    14 2   
    13     5    18 1   
    14     6     7 1   
    15     6    15 1   
    16     7     8 1   
    17     7    19 1   
    18     7    20 1   
    19     8     9 1   
    20     8    21 1   
    21     8    22 1   
    22     9    10 1   
    23     9    23 1   
    24     9    24 1   
    25    10    15 1   
    26    10    16 1   
    27    10    25 1   
    28    13    26 1   
    29    14    27 1   
    30    15    28 1   
    31    15    29 1   
    32    16    30 1   
    33    16    31 1   
@<TRIPOS>SUBSTRUCTURE
     1 5JT         1 TEMP              0 ****  ****    0 ROOT
