@<TRIPOS>MOLECULE
5JU
   81    86     1     0     0
SMALL
No Charge or Current Charge


@<TRIPOS>ATOM
      1 C1          -8.9260     2.5620     1.0090 ca         1 5JU       0.378300
      2 C3          -9.0500     4.6290    -0.0390 ca         1 5JU       0.346900
      3 C41         -1.0390    -1.6150    -0.0810 c3         1 5JU       0.037000
      4 C43          6.5880    -1.8270     0.8960 c3         1 5JU       0.151100
      5 C45         -8.6370     1.8110     2.3000 c3         1 5JU      -0.149400
      6 C11         -7.0040    -0.2650    -0.1810 ca         1 5JU      -0.136000
      7 C12         -9.4520     0.4330    -0.2140 cc         1 5JU      -0.014400
      8 C13        -10.7020    -0.1650    -0.2300 cd         1 5JU       0.122600
      9 C16         -6.0850    -1.3350    -0.1580 ca         1 5JU      -0.002000
     10 C18         -3.5590    -1.7900    -0.1120 c          1 5JU       0.664100
     11 C20         12.3820     0.7610     0.1880 ca         1 5JU      -0.300300
     12 C21         13.1690     1.0040     1.2950 ca         1 5JU       0.286000
     13 C23         11.3440     0.8920     2.6390 ca         1 5JU       0.165900
     14 C25         11.0050     0.5690     0.3790 ca         1 5JU       0.419900
     15 C26         13.2460     0.6930    -1.0630 c5         1 5JU      -0.121400
     16 C27         14.5990     0.9540    -0.3920 c2         1 5JU       0.417200
     17 C30          9.9620     1.2520    -1.7950 c6         1 5JU       0.211800
     18 N2          -8.7910     3.9080     1.0750 nb         1 5JU      -0.679000
     19 C4          -9.4520     4.0430    -1.2500 ca         1 5JU      -0.173000
     20 C5          -9.5920     2.6490    -1.3220 ca         1 5JU      -0.050000
     21 C6          -9.3230     1.8870    -0.1710 ca         1 5JU      -0.091800
     22 C7          -8.3810    -0.5360    -0.1920 ca         1 5JU      -0.032800
     23 C8          -8.8470    -1.8350    -0.1910 ca         1 5JU      -0.187000
     24 C9          -7.9610    -2.9200    -0.1710 ca         1 5JU      -0.058000
     25 C10         -6.5750    -2.6660    -0.1530 ca         1 5JU      -0.107000
     26 S14        -10.6240    -1.9500    -0.2240 ss         1 5JU       0.102400
     27 Cl         -12.2230     0.6750    -0.2180 cl         1 5JU      -0.126000
     28 N17         -4.7010    -1.0070    -0.1450 ns         1 5JU      -0.165000
     29 O19         -3.5370    -3.0120    -0.0830 o          1 5JU      -0.631100
     30 N22         12.6790     1.0840     2.5420 nb         1 5JU      -0.163000
     31 N24         10.4850     0.6300     1.6250 nb         1 5JU      -0.276000
     32 N28         14.4990     1.1260     0.9000 ne         1 5JU      -0.594700
     33 N29         10.1290     0.2840    -0.6870 nh         1 5JU      -0.762300
     34 C31          8.6880     2.0930    -1.5710 c6         1 5JU      -0.106400
     35 C32          7.4290     1.2040    -1.4090 c6         1 5JU      -0.078400
     36 C33          7.5950     0.1510    -0.2630 c6         1 5JU       0.162500
     37 C34          8.9490    -0.6200    -0.4970 c6         1 5JU       0.210800
     38 N35          6.3990    -0.7750    -0.1450 n3         1 5JU      -0.727600
     39 C36          5.0960    -0.0570     0.0160 c3         1 5JU       0.171800
     40 C37          3.8330    -0.9500     0.0180 c3         1 5JU      -0.097400
     41 C38          2.5340    -0.1280    -0.0720 c3         1 5JU       0.103000
     42 N39          1.3480    -0.9860    -0.0660 ns         1 5JU      -0.501900
     43 C40          0.0530    -0.5180    -0.0940 c          1 5JU       0.586100
     44 O42         -0.2010     0.6810    -0.1260 o          1 5JU      -0.612100
     45 N44         -2.4060    -1.0450    -0.1130 ns         1 5JU      -0.520900
     46 H1          -8.9330     5.7090     0.0430 h4         1 5JU       0.019100
     47 H2          -0.8890    -2.2610    -0.9560 h1         1 5JU       0.066700
     48 H3          -0.9120    -2.2180     0.8270 h1         1 5JU       0.066700
     49 H4           6.7050    -1.3780     1.8910 h1         1 5JU       0.035033
     50 H5           5.7390    -2.5210     0.9300 h1         1 5JU       0.035033
     51 H6           7.4660    -2.4500     0.6900 h1         1 5JU       0.035033
     52 H7          -7.6880     1.2680     2.2310 hc         1 5JU       0.055700
     53 H8          -8.5710     2.4870     3.1600 hc         1 5JU       0.055700
     54 H9          -9.4280     1.0830     2.5160 hc         1 5JU       0.055700
     55 H10         -6.6520     0.7640    -0.1900 ha         1 5JU       0.122000
     56 H12         13.2210    -0.2860    -1.5550 hc         1 5JU       0.083700
     57 H13         13.0210     1.4670    -1.8030 hc         1 5JU       0.083700
     58 H14         15.5570     1.0080    -0.9030 h4         1 5JU       0.042800
     59 H15         10.8240     1.9290    -1.8630 h1         1 5JU       0.057200
     60 H16          9.8950     0.7200    -2.7560 h1         1 5JU       0.057200
     61 H17         -9.6490     4.6670    -2.1170 ha         1 5JU       0.125000
     62 H18         -9.8990     2.1690    -2.2490 ha         1 5JU       0.125000
     63 H19         -8.3350    -3.9420    -0.1700 ha         1 5JU       0.126000
     64 H20         -5.9020    -3.5170    -0.1370 ha         1 5JU       0.145000
     65 H21         -4.5220    -0.0120    -0.1640 hn         1 5JU       0.150000
     66 H22          8.8170     2.7160    -0.6750 hc         1 5JU       0.051700
     67 H23          8.5510     2.7840    -2.4130 hc         1 5JU       0.051700
     68 H24          6.5860     1.8750    -1.2080 hc         1 5JU       0.050700
     69 H25          7.2130     0.6920    -2.3560 hc         1 5JU       0.050700
     70 H26          7.7010     0.7090     0.6790 h1         1 5JU       0.037700
     71 H27          8.8370    -1.2670    -1.3800 h1         1 5JU       0.075700
     72 H28          9.1490    -1.2920     0.3480 h1         1 5JU       0.075700
     73 H30          5.1070     0.5390     0.9390 h1         1 5JU       0.036200
     74 H31          4.9520     0.6400    -0.8170 h1         1 5JU       0.036200
     75 H32          3.8800    -1.6430    -0.8310 hc         1 5JU       0.052200
     76 H33          3.7980    -1.5490     0.9350 hc         1 5JU       0.052200
     77 H34          2.4770     0.5620     0.7810 h1         1 5JU       0.053200
     78 H35          2.5360     0.4650    -0.9960 h1         1 5JU       0.053200
     79 H36          1.4750    -1.9920    -0.0410 hn         1 5JU       0.320500
     80 H37         -2.5020    -0.0350    -0.1370 hn         1 5JU       0.343500
     81 H11         10.9160     0.9460     3.6390 h5         1 5JU       0.049100
@<TRIPOS>BOND
     1     1     5 1   
     2     1    18 ar  
     3     1    21 ar  
     4     2    18 ar  
     5     2    19 ar  
     6     2    46 1   
     7     3    43 1   
     8     3    45 1   
     9     3    47 1   
    10     3    48 1   
    11     4    38 1   
    12     4    49 1   
    13     4    50 1   
    14     4    51 1   
    15     5    52 1   
    16     5    53 1   
    17     5    54 1   
    18     6     9 ar  
    19     6    22 ar  
    20     6    55 1   
    21     7     8 2   
    22     7    21 1   
    23     7    22 1   
    24     8    26 1   
    25     8    27 1   
    26     9    25 ar  
    27     9    28 1   
    28    10    28 1   
    29    10    29 2   
    30    10    45 1   
    31    11    12 ar  
    32    11    14 ar  
    33    11    15 1   
    34    12    30 ar  
    35    12    32 1   
    36    13    30 ar  
    37    13    31 ar  
    38    13    81 1   
    39    14    31 ar  
    40    14    33 1   
    41    15    16 1   
    42    15    56 1   
    43    15    57 1   
    44    16    32 2   
    45    16    58 1   
    46    17    33 1   
    47    17    34 1   
    48    17    59 1   
    49    17    60 1   
    50    19    20 ar  
    51    19    61 1   
    52    20    21 ar  
    53    20    62 1   
    54    22    23 ar  
    55    23    24 ar  
    56    23    26 1   
    57    24    25 ar  
    58    24    63 1   
    59    25    64 1   
    60    28    65 1   
    61    33    37 1   
    62    34    35 1   
    63    34    66 1   
    64    34    67 1   
    65    35    36 1   
    66    35    68 1   
    67    35    69 1   
    68    36    37 1   
    69    36    38 1   
    70    36    70 1   
    71    37    71 1   
    72    37    72 1   
    73    38    39 1   
    74    39    40 1   
    75    39    73 1   
    76    39    74 1   
    77    40    41 1   
    78    40    75 1   
    79    40    76 1   
    80    41    42 1   
    81    41    77 1   
    82    41    78 1   
    83    42    43 1   
    84    42    79 1   
    85    43    44 2   
    86    45    80 1   
@<TRIPOS>SUBSTRUCTURE
     1 5JU         1 TEMP              0 ****  ****    0 ROOT
