@<TRIPOS>MOLECULE
5JU
   81    86     1     0     0
SMALL
abcg2


@<TRIPOS>ATOM
      1 C1          -8.7930     1.9620     1.6460 ca         1 5JU       0.378300
      2 C3          -8.9910     4.2450     1.5940 ca         1 5JU       0.346900
      3 C41         -0.9070    -1.2220    -0.2570 c3         1 5JU       0.037000
      4 C43          6.4290    -1.1730     2.0410 c3         1 5JU       0.151100
      5 C45         -8.5020     0.7340     2.4540 c3         1 5JU      -0.149400
      6 C11         -6.6960     0.1160    -0.5950 ca         1 5JU      -0.136000
      7 C12         -9.1960     0.5660    -0.3890 cc         1 5JU      -0.014400
      8 C13        -10.3370    -0.0740    -0.7370 cd         1 5JU       0.122600
      9 C16         -5.7100    -0.7580    -1.0320 ca         1 5JU      -0.002000
     10 C18         -3.3000    -1.1890    -0.6670 c          1 5JU       0.664100
     11 C20         11.7180     1.2540    -0.1360 ca         1 5JU      -0.300300
     12 C21         12.3520     2.1930     0.6650 ca         1 5JU       0.286000
     13 C23         11.0660     1.7190     2.3910 ca         1 5JU       0.165900
     14 C25         10.6750     0.5220     0.4620 ca         1 5JU       0.419900
     15 C26         12.3970     1.3170    -1.4640 c5         1 5JU      -0.121400
     16 C27         13.4100     2.3810    -1.1940 c2         1 5JU       0.417200
     17 C30          9.9510    -0.6890    -1.5650 c6         1 5JU       0.211800
     18 N2          -8.7230     3.1340     2.2700 nb         1 5JU      -0.679000
     19 C4          -9.3530     4.2550     0.2580 ca         1 5JU      -0.173000
     20 C5          -9.4250     3.0390    -0.4020 ca         1 5JU      -0.050000
     21 C6          -9.1370     1.8700     0.2890 ca         1 5JU      -0.091800
     22 C7          -8.0410    -0.2050    -0.7720 ca         1 5JU      -0.032800
     23 C8          -8.3840    -1.4140    -1.3910 ca         1 5JU      -0.187000
     24 C9          -7.4040    -2.2920    -1.8380 ca         1 5JU      -0.058000
     25 C10         -6.0740    -1.9630    -1.6610 ca         1 5JU      -0.107000
     26 S14        -10.1050    -1.6050    -1.5160 ss         1 5JU       0.102400
     27 CL         -11.9230     0.4790    -0.4530 cl         1 5JU      -0.126000
     28 N17         -4.3810    -0.3630    -0.8770 ns         1 5JU      -0.165000
     29 O19         -3.3740    -2.4090    -0.6550 o          1 5JU      -0.631100
     30 N22         12.0620     2.4620     1.9300 nb         1 5JU      -0.163000
     31 N24         10.3800     0.7990     1.7450 nb         1 5JU      -0.276000
     32 N28         13.3810     2.8670    -0.0120 ne         1 5JU      -0.594700
     33 N29          9.9610    -0.4620    -0.1320 nh         1 5JU      -0.762300
     34 C31          8.7460     0.0030    -2.1820 c6         1 5JU      -0.106400
     35 C32          7.4630    -0.4700    -1.5060 c6         1 5JU      -0.078400
     36 C33          7.5190    -0.3260     0.0200 c6         1 5JU       0.162500
     37 C34          8.7910    -1.0220     0.5230 c6         1 5JU       0.210800
     38 N35          6.3110    -0.8870     0.6230 n3         1 5JU      -0.727600
     39 C36          5.1410    -0.0500     0.3870 c3         1 5JU       0.171800
     40 C37          3.8610    -0.8670     0.2740 c3         1 5JU      -0.097400
     41 C38          2.6470     0.0330     0.1230 c3         1 5JU       0.103000
     42 N39          1.4400    -0.7590    -0.0110 ns         1 5JU      -0.501900
     43 C40          0.2300    -0.2150    -0.1660 c          1 5JU       0.586100
     44 O42          0.0360     0.9910    -0.2260 o          1 5JU      -0.612100
     45 N44         -2.1410    -0.5250    -0.4810 ns         1 5JU      -0.520900
     46 H1          -8.9150     5.1750     2.1480 h4         1 5JU       0.019100
     47 H2          -0.6960    -1.9290    -1.0640 h1         1 5JU       0.066700
     48 H3          -0.9320    -1.8020     0.6710 h1         1 5JU       0.066700
     49 H4           6.7390    -0.3020     2.6380 h1         1 5JU       0.035033
     50 H5           5.4660    -1.5060     2.4280 h1         1 5JU       0.035033
     51 H6           7.1320    -1.9840     2.2320 h1         1 5JU       0.035033
     52 H7          -7.5630     0.2700     2.1460 hc         1 5JU       0.055700
     53 H8          -8.4230     0.9860     3.5090 hc         1 5JU       0.055700
     54 H9          -9.2820    -0.0180     2.3300 hc         1 5JU       0.055700
     55 H10         -6.4210     1.0510    -0.1200 ha         1 5JU       0.122000
     56 H12         12.8920     0.3880    -1.7680 hc         1 5JU       0.083700
     57 H13         11.7510     1.6160    -2.2950 hc         1 5JU       0.083700
     58 H14         14.1210     2.7270    -1.9340 h4         1 5JU       0.042800
     59 H15         10.8800    -0.3660    -2.0220 h1         1 5JU       0.057200
     60 H16          9.8890    -1.7680    -1.7310 h1         1 5JU       0.057200
     61 H17         -9.5690     5.1850    -0.2490 ha         1 5JU       0.125000
     62 H18         -9.6950     2.9940    -1.4490 ha         1 5JU       0.125000
     63 H19         -7.6680    -3.2180    -2.3300 ha         1 5JU       0.126000
     64 H20         -5.3170    -2.6370    -2.0270 ha         1 5JU       0.145000
     65 H21         -4.2440     0.6210    -0.7060 hn         1 5JU       0.150000
     66 H22          8.8560     1.0870    -2.0740 hc         1 5JU       0.051700
     67 H23          8.7040    -0.2050    -3.2530 hc         1 5JU       0.051700
     68 H24          6.6150     0.0750    -1.9240 hc         1 5JU       0.050700
     69 H25          7.2990    -1.5280    -1.7360 hc         1 5JU       0.050700
     70 H26          7.6250     0.7440     0.2810 h1         1 5JU       0.037700
     71 H27          8.7480    -2.0910     0.2880 h1         1 5JU       0.075700
     72 H28          8.9120    -0.9170     1.5950 h1         1 5JU       0.075700
     73 H30          5.0340     0.7090     1.1790 h1         1 5JU       0.036200
     74 H31          5.2680     0.5090    -0.5410 h1         1 5JU       0.036200
     75 H32          3.9430    -1.5350    -0.5880 hc         1 5JU       0.052200
     76 H33          3.7320    -1.5010     1.1560 hc         1 5JU       0.052200
     77 H34          2.5630     0.6930     0.9910 h1         1 5JU       0.053200
     78 H35          2.7650     0.6770    -0.7530 h1         1 5JU       0.053200
     79 H36          1.5230    -1.7630     0.0270 hn         1 5JU       0.320500
     80 H37         -2.0940     0.4830    -0.5050 hn         1 5JU       0.343500
     81 H11         10.7750     1.8870     3.4230 h5         1 5JU       0.049100
@<TRIPOS>BOND
     1     1     5 1   
     2     1    18 ar  
     3     1    21 ar  
     4     2    18 ar  
     5     2    19 ar  
     6     2    46 1   
     7     3    43 1   
     8     3    45 1   
     9     3    47 1   
    10     3    48 1   
    11     4    38 1   
    12     4    49 1   
    13     4    50 1   
    14     4    51 1   
    15     5    52 1   
    16     5    53 1   
    17     5    54 1   
    18     6     9 ar  
    19     6    22 ar  
    20     6    55 1   
    21     7     8 2   
    22     7    21 1   
    23     7    22 1   
    24     8    26 1   
    25     8    27 1   
    26     9    25 ar  
    27     9    28 1   
    28    10    28 1   
    29    10    29 2   
    30    10    45 1   
    31    11    12 ar  
    32    11    14 ar  
    33    11    15 1   
    34    12    30 ar  
    35    12    32 1   
    36    13    30 ar  
    37    13    31 ar  
    38    13    81 1   
    39    14    31 ar  
    40    14    33 1   
    41    15    16 1   
    42    15    56 1   
    43    15    57 1   
    44    16    32 2   
    45    16    58 1   
    46    17    33 1   
    47    17    34 1   
    48    17    59 1   
    49    17    60 1   
    50    19    20 ar  
    51    19    61 1   
    52    20    21 ar  
    53    20    62 1   
    54    22    23 ar  
    55    23    24 ar  
    56    23    26 1   
    57    24    25 ar  
    58    24    63 1   
    59    25    64 1   
    60    28    65 1   
    61    33    37 1   
    62    34    35 1   
    63    34    66 1   
    64    34    67 1   
    65    35    36 1   
    66    35    68 1   
    67    35    69 1   
    68    36    37 1   
    69    36    38 1   
    70    36    70 1   
    71    37    71 1   
    72    37    72 1   
    73    38    39 1   
    74    39    40 1   
    75    39    73 1   
    76    39    74 1   
    77    40    41 1   
    78    40    75 1   
    79    40    76 1   
    80    41    42 1   
    81    41    77 1   
    82    41    78 1   
    83    42    43 1   
    84    42    79 1   
    85    43    44 2   
    86    45    80 1   
@<TRIPOS>SUBSTRUCTURE
     1 5JU         1 TEMP              0 ****  ****    0 ROOT
