@<TRIPOS>MOLECULE
5JW
   29    31     1     0     0
SMALL
abcg2


@<TRIPOS>ATOM
      1 CL1         -3.7380     2.9810     0.0110 cl         1 5JW      -0.215000
      2 C16         -2.0670     2.5210     0.0050 ca         1 5JW       0.114500
      3 C15         -1.7480     1.1680     0.0010 ca         1 5JW      -0.055000
      4 C17         -1.0970     3.5150     0.0050 ca         1 5JW      -0.118000
      5 C18          0.2480     3.1640     0.0010 ca         1 5JW      -0.090500
      6 C12          0.5920     1.8250    -0.0040 cp         1 5JW      -0.043500
      7 C02          1.9060     1.1830    -0.0090 cp         1 5JW      -0.043500
      8 C01          3.1830     1.7170    -0.0080 ca         1 5JW      -0.090500
      9 C06          4.2710     0.8530    -0.0110 ca         1 5JW      -0.118000
     10 C13         -0.4030     0.8300    -0.0050 ca         1 5JW      -0.106900
     11 C14          0.2750    -0.4770    -0.0120 cc         1 5JW       0.393500
     12 C03          1.7180    -0.2040    -0.0130 ca         1 5JW      -0.106900
     13 C04          2.7900    -1.0770    -0.0160 ca         1 5JW      -0.055000
     14 C05          4.0630    -0.5220    -0.0150 ca         1 5JW       0.114500
     15 CL2          5.4370    -1.5780    -0.0170 cl         1 5JW      -0.215000
     16 N14         -0.1800    -1.6690    -0.0170 n2         1 5JW      -0.264700
     17 O29         -1.5160    -1.7130    -0.0150 os         1 5JW      -0.253000
     18 CB5         -2.0150    -3.0440    -0.0210 c3         1 5JW       0.000600
     19 CA1         -3.5510    -3.0120    -0.0000 c          1 5JW       0.727000
     20 OA2         -4.0770    -4.1400    -0.0210 o          1 5JW      -0.713000
     21 OA3         -4.1110    -1.9050     0.0370 o          1 5JW      -0.713000
     22 H1          -2.5290     0.4200     0.0020 ha         1 5JW       0.170500
     23 H2          -1.3860     4.5570     0.0100 ha         1 5JW       0.116500
     24 H3           1.0030     3.9400     0.0020 ha         1 5JW       0.110500
     25 H4           3.3470     2.7870    -0.0050 ha         1 5JW       0.110500
     26 H5           5.2780     1.2480    -0.0100 ha         1 5JW       0.116500
     27 H6           2.6470    -2.1490    -0.0180 ha         1 5JW       0.170500
     28 H7          -1.6650    -3.5730    -0.9130 h1         1 5JW       0.027700
     29 H8          -1.6430    -3.5880     0.8540 h1         1 5JW       0.027700
@<TRIPOS>BOND
     1     1     2 1   
     2     2     3 ar  
     3     2     4 ar  
     4     3    10 ar  
     5     3    22 1   
     6     4     5 ar  
     7     4    23 1   
     8     5     6 ar  
     9     5    24 1   
    10     6     7 1   
    11     6    10 ar  
    12     7     8 ar  
    13     7    12 ar  
    14     8     9 ar  
    15     8    25 1   
    16     9    14 ar  
    17     9    26 1   
    18    10    11 1   
    19    11    12 1   
    20    11    16 2   
    21    12    13 ar  
    22    13    14 ar  
    23    13    27 1   
    24    14    15 1   
    25    16    17 1   
    26    17    18 1   
    27    18    19 1   
    28    18    28 1   
    29    18    29 1   
    30    19    20 1   
    31    19    21 1   
@<TRIPOS>SUBSTRUCTURE
     1 5JW         1 TEMP              0 ****  ****    0 ROOT
