@<TRIPOS>MOLECULE
5JW
   29    31     1     0     0
SMALL
No Charge or Current Charge


@<TRIPOS>ATOM
      1 Cl1         -3.7580     3.1130     0.0130 cl         1 5JW      -0.215000
      2 C16         -2.0650     2.6340     0.0070 ca         1 5JW       0.114500
      3 C15         -1.7300     1.2640     0.0010 ca         1 5JW      -0.055000
      4 C17         -1.0620     3.6280     0.0080 ca         1 5JW      -0.118000
      5 C18          0.2980     3.2640     0.0040 ca         1 5JW      -0.090500
      6 C12          0.6250     1.8950    -0.0020 cp         1 5JW      -0.043500
      7 C02          1.9370     1.2260    -0.0070 cp         1 5JW      -0.043500
      8 C01          3.2440     1.7470    -0.0090 ca         1 5JW      -0.090500
      9 C06          4.3260     0.8420    -0.0140 ca         1 5JW      -0.118000
     10 C13         -0.3670     0.8990    -0.0030 ca         1 5JW      -0.106900
     11 C14          0.2700    -0.4340    -0.0090 cc         1 5JW       0.393500
     12 C03          1.7050    -0.1530    -0.0120 ca         1 5JW      -0.106900
     13 C04          2.7750    -1.0640    -0.0170 ca         1 5JW      -0.055000
     14 C05          4.0900    -0.5530    -0.0190 ca         1 5JW       0.114500
     15 Cl2          5.4550    -1.6630    -0.0260 cl         1 5JW      -0.215000
     16 N14         -0.2490    -1.6320    -0.0120 n2         1 5JW      -0.264700
     17 O29         -1.6520    -1.7210    -0.0090 os         1 5JW      -0.253000
     18 CB5         -2.0610    -3.1070    -0.0130 c3         1 5JW       0.000600
     19 CA1         -3.6070    -3.2860    -0.0100 c          1 5JW       0.727000
     20 OA2         -4.0440    -4.4300    -0.0130 o          1 5JW      -0.713000
     21 OA3         -4.3310    -2.2970    -0.0050 o          1 5JW      -0.713000
     22 H1          -2.5240     0.5250     0.0010 ha         1 5JW       0.170500
     23 H2          -1.3420     4.6790     0.0120 ha         1 5JW       0.116500
     24 H3           1.0770     4.0220     0.0040 ha         1 5JW       0.110500
     25 H4           3.4160     2.8210    -0.0050 ha         1 5JW       0.110500
     26 H5           5.3460     1.2170    -0.0150 ha         1 5JW       0.116500
     27 H6           2.6000    -2.1370    -0.0210 ha         1 5JW       0.170500
     28 H7          -1.6710    -3.6170    -0.9040 h1         1 5JW       0.027700
     29 H8          -1.6670    -3.6230     0.8730 h1         1 5JW       0.027700
@<TRIPOS>BOND
     1     1     2 1   
     2     2     3 ar  
     3     2     4 ar  
     4     3    10 ar  
     5     3    22 1   
     6     4     5 ar  
     7     4    23 1   
     8     5     6 ar  
     9     5    24 1   
    10     6     7 1   
    11     6    10 ar  
    12     7     8 ar  
    13     7    12 ar  
    14     8     9 ar  
    15     8    25 1   
    16     9    14 ar  
    17     9    26 1   
    18    10    11 1   
    19    11    12 1   
    20    11    16 2   
    21    12    13 ar  
    22    13    14 ar  
    23    13    27 1   
    24    14    15 1   
    25    16    17 1   
    26    17    18 1   
    27    18    19 1   
    28    18    28 1   
    29    18    29 1   
    30    19    20 1   
    31    19    21 1   
@<TRIPOS>SUBSTRUCTURE
     1 5JW         1 TEMP              0 ****  ****    0 ROOT
