@<TRIPOS>MOLECULE
5JX
   44    46     1     0     0
SMALL
abcg2


@<TRIPOS>ATOM
      1 O01          1.8010     5.2410    -0.7660 oh         1 5JX      -0.534100
      2 C02          1.4590     3.9710    -0.4670 ca         1 5JX       0.139600
      3 C03          2.1560     3.2010     0.4620 ca         1 5JX      -0.178750
      4 C04          1.7570     1.9000     0.7210 ca         1 5JX      -0.060250
      5 C05          0.6530     1.3330     0.0860 ca         1 5JX      -0.085300
      6 C06          0.2560    -0.0700     0.3680 ce         1 5JX      -0.005400
      7 C07          1.3470    -1.0610     0.1870 ca         1 5JX      -0.085300
      8 C08          1.7300    -1.9350     1.2050 ca         1 5JX      -0.060250
      9 C09          2.7610    -2.8440     1.0340 ca         1 5JX      -0.178750
     10 C10          3.4470    -2.8970    -0.1770 ca         1 5JX       0.139600
     11 O11          4.4430    -3.7980    -0.3010 oh         1 5JX      -0.534100
     12 C12          3.0900    -2.0230    -1.2010 ca         1 5JX      -0.178750
     13 C13          2.0610    -1.1150    -1.0100 ca         1 5JX      -0.060250
     14 C14         -0.9870    -0.4130     0.7480 c2         1 5JX      -0.088400
     15 C15         -2.0830     0.5730     1.0450 c6         1 5JX      -0.042700
     16 C16         -3.2720     0.3810     0.1010 c6         1 5JX      -0.067900
     17 C17         -3.7950    -1.0520     0.1640 c6         1 5JX      -0.098700
     18 C18         -4.9090    -1.3050    -0.8260 c3         1 5JX       0.187600
     19 F19         -5.9820    -0.4410    -0.6020 f          1 5JX      -0.273000
     20 C20         -2.6630    -2.0480    -0.0900 c6         1 5JX      -0.067900
     21 C21         -1.4760    -1.8310     0.8550 c6         1 5JX      -0.042700
     22 C22         -0.0210     2.1150    -0.8530 ca         1 5JX      -0.060250
     23 C23          0.3670     3.4160    -1.1300 ca         1 5JX      -0.178750
     24 H1           2.5620     5.5160    -0.2430 ho         1 5JX       0.464000
     25 H2           3.0130     3.6150     0.9830 ha         1 5JX       0.120750
     26 H3           2.3170     1.3160     1.4420 ha         1 5JX       0.117250
     27 H5           1.2150    -1.9010     2.1570 ha         1 5JX       0.117250
     28 H6           3.0410    -3.5100     1.8410 ha         1 5JX       0.120750
     29 H7           4.8310    -3.7500    -1.1820 ho         1 5JX       0.464000
     30 H8           3.6180    -2.0450    -2.1480 ha         1 5JX       0.120750
     31 H9           1.8070    -0.4390    -1.8170 ha         1 5JX       0.117250
     32 H11         -2.4280     0.3930     2.0710 hc         1 5JX       0.052700
     33 H12         -1.7330     1.6040     1.0110 hc         1 5JX       0.052700
     34 H13         -4.0620     1.0890     0.3580 hc         1 5JX       0.045700
     35 H14         -2.9620     0.6090    -0.9260 hc         1 5JX       0.045700
     36 H15         -4.1800    -1.2350     1.1750 hc         1 5JX       0.059700
     37 H16         -4.5600    -1.1440    -1.8490 h1         1 5JX       0.041700
     38 H17         -5.2840    -2.3280    -0.7410 h1         1 5JX       0.041700
     39 H18         -3.0320    -3.0720     0.0240 hc         1 5JX       0.045700
     40 H19         -2.3130    -1.9530    -1.1230 hc         1 5JX       0.045700
     41 H20         -0.6970    -2.5560     0.6240 hc         1 5JX       0.052700
     42 H21         -1.8000    -2.0310     1.8830 hc         1 5JX       0.052700
     43 H22         -0.8630     1.6970    -1.3920 ha         1 5JX       0.117250
     44 H23         -0.1700     4.0020    -1.8650 ha         1 5JX       0.120750
@<TRIPOS>BOND
     1     1     2 1   
     2     1    24 1   
     3     2     3 ar  
     4     2    23 ar  
     5     3     4 ar  
     6     3    25 1   
     7     4     5 ar  
     8     4    26 1   
     9     5     6 1   
    10     5    22 ar  
    11     6     7 1   
    12     6    14 2   
    13     7     8 ar  
    14     7    13 ar  
    15     8     9 ar  
    16     8    27 1   
    17     9    10 ar  
    18     9    28 1   
    19    10    11 1   
    20    10    12 ar  
    21    11    29 1   
    22    12    13 ar  
    23    12    30 1   
    24    13    31 1   
    25    14    15 1   
    26    14    21 1   
    27    15    16 1   
    28    15    32 1   
    29    15    33 1   
    30    16    17 1   
    31    16    34 1   
    32    16    35 1   
    33    17    18 1   
    34    17    20 1   
    35    17    36 1   
    36    18    19 1   
    37    18    37 1   
    38    18    38 1   
    39    20    21 1   
    40    20    39 1   
    41    20    40 1   
    42    21    41 1   
    43    21    42 1   
    44    22    23 ar  
    45    22    43 1   
    46    23    44 1   
@<TRIPOS>SUBSTRUCTURE
     1 5JX         1 TEMP              0 ****  ****    0 ROOT
