@<TRIPOS>MOLECULE
5JX
   44    46     1     0     0
SMALL
No Charge or Current Charge


@<TRIPOS>ATOM
      1 O01          1.9640     5.2870    -0.6330 oh         1 5JX      -0.534100
      2 C02          1.5590     4.0070    -0.3990 ca         1 5JX       0.139600
      3 C03          2.1350     3.2610     0.6420 ca         1 5JX      -0.178750
      4 C04          1.7120     1.9400     0.8760 ca         1 5JX      -0.060250
      5 C05          0.7070     1.3640     0.0760 ca         1 5JX      -0.085300
      6 C06          0.2790    -0.0440     0.3140 ce         1 5JX      -0.005400
      7 C07          1.3730    -1.0420     0.1360 ca         1 5JX      -0.085300
      8 C08          1.7880    -1.8510     1.2130 ca         1 5JX      -0.060250
      9 C09          2.8340    -2.7750     1.0420 ca         1 5JX      -0.178750
     10 C10          3.4740    -2.8890    -0.2010 ca         1 5JX       0.139600
     11 O11          4.4870    -3.7870    -0.3570 oh         1 5JX      -0.534100
     12 C12          3.0750    -2.0780    -1.2740 ca         1 5JX      -0.178750
     13 C13          2.0290    -1.1530    -1.1050 ca         1 5JX      -0.060250
     14 C14         -0.9950    -0.3870     0.6600 c2         1 5JX      -0.088400
     15 C15         -2.1140     0.6260     0.9220 c6         1 5JX      -0.042700
     16 C16         -3.3390     0.3560     0.0170 c6         1 5JX      -0.067900
     17 C17         -3.8590    -1.0980     0.1940 c6         1 5JX      -0.098700
     18 C18         -5.0880    -1.3950    -0.7120 c3         1 5JX       0.187600
     19 F19         -6.1380    -0.5910    -0.4120 f          1 5JX      -0.273000
     20 C20         -2.7130    -2.1150    -0.0660 c6         1 5JX      -0.067900
     21 C21         -1.4780    -1.8320     0.8250 c6         1 5JX      -0.042700
     22 C22          0.1440     2.1140    -0.9760 ca         1 5JX      -0.060250
     23 C23          0.5670     3.4350    -1.2080 ca         1 5JX      -0.178750
     24 H1           2.6580     5.5170     0.0220 ho         1 5JX       0.464000
     25 H2           2.9080     3.6950     1.2710 ha         1 5JX       0.120750
     26 H3           2.1620     1.3630     1.6810 ha         1 5JX       0.117250
     27 H5           1.2990    -1.7600     2.1800 ha         1 5JX       0.117250
     28 H6           3.1480    -3.4000     1.8740 ha         1 5JX       0.120750
     29 H7           4.8140    -3.7280    -1.2800 ho         1 5JX       0.464000
     30 H8           3.5700    -2.1560    -2.2400 ha         1 5JX       0.120750
     31 H9           1.7240    -0.5230    -1.9390 ha         1 5JX       0.117250
     32 H11         -2.4190     0.5510     1.9750 hc         1 5JX       0.052700
     33 H12         -1.7800     1.6620     0.7910 hc         1 5JX       0.052700
     34 H13         -4.1340     1.0760     0.2570 hc         1 5JX       0.045700
     35 H14         -3.0640     0.5320    -1.0320 hc         1 5JX       0.045700
     36 H15         -4.2050    -1.2240     1.2300 hc         1 5JX       0.059700
     37 H16         -4.8190    -1.2440    -1.7660 h1         1 5JX       0.041700
     38 H17         -5.4020    -2.4370    -0.5760 h1         1 5JX       0.041700
     39 H18         -3.0690    -3.1380     0.1170 hc         1 5JX       0.045700
     40 H19         -2.4130    -2.0740    -1.1220 hc         1 5JX       0.045700
     41 H20         -0.6970    -2.5590     0.5700 hc         1 5JX       0.052700
     42 H21         -1.7310    -2.0130     1.8790 hc         1 5JX       0.052700
     43 H22         -0.6200     1.6720    -1.6110 ha         1 5JX       0.117250
     44 H23          0.1270     4.0110    -2.0180 ha         1 5JX       0.120750
@<TRIPOS>BOND
     1     1     2 1   
     2     1    24 1   
     3     2     3 ar  
     4     2    23 ar  
     5     3     4 ar  
     6     3    25 1   
     7     4     5 ar  
     8     4    26 1   
     9     5     6 1   
    10     5    22 ar  
    11     6     7 1   
    12     6    14 2   
    13     7     8 ar  
    14     7    13 ar  
    15     8     9 ar  
    16     8    27 1   
    17     9    10 ar  
    18     9    28 1   
    19    10    11 1   
    20    10    12 ar  
    21    11    29 1   
    22    12    13 ar  
    23    12    30 1   
    24    13    31 1   
    25    14    15 1   
    26    14    21 1   
    27    15    16 1   
    28    15    32 1   
    29    15    33 1   
    30    16    17 1   
    31    16    34 1   
    32    16    35 1   
    33    17    18 1   
    34    17    20 1   
    35    17    36 1   
    36    18    19 1   
    37    18    37 1   
    38    18    38 1   
    39    20    21 1   
    40    20    39 1   
    41    20    40 1   
    42    21    41 1   
    43    21    42 1   
    44    22    23 ar  
    45    22    43 1   
    46    23    44 1   
@<TRIPOS>SUBSTRUCTURE
     1 5JX         1 TEMP              0 ****  ****    0 ROOT
