@<TRIPOS>MOLECULE
5JY
   47    49     1     0     0
SMALL
bcc


@<TRIPOS>ATOM
      1 O01          1.5990     5.3610    -0.5280 oh         1 5JY      -0.495100
      2 C02          1.2420     4.0760    -0.3280 ca         1 5JY       0.138100
      3 C03          1.9660     3.3350     0.6060 ca         1 5JY      -0.197000
      4 C04          1.6380     2.0110     0.8410 ca         1 5JY      -0.078750
      5 C05          0.5800     1.3880     0.1770 ca         1 5JY      -0.082300
      6 C06          0.2610    -0.0400     0.4300 ce         1 5JY      -0.011400
      7 C07          1.4070    -0.9630     0.2350 ca         1 5JY      -0.082300
      8 C08          2.1280    -0.9520    -0.9580 ca         1 5JY      -0.078750
      9 C09          3.2060    -1.7980    -1.1640 ca         1 5JY      -0.197000
     10 C10          3.6060    -2.6750    -0.1570 ca         1 5JY       0.138100
     11 O11          4.6500    -3.5170    -0.2980 oh         1 5JY      -0.495100
     12 C12          2.9130    -2.6850     1.0500 ca         1 5JY      -0.197000
     13 C13          1.8330    -1.8370     1.2350 ca         1 5JY      -0.078750
     14 C14         -0.9650    -0.4590     0.7910 c2         1 5JY      -0.083400
     15 C15         -1.3790    -1.9020     0.8600 c6         1 5JY      -0.043700
     16 C16         -2.5430    -2.1530    -0.1060 c6         1 5JY      -0.068900
     17 C17         -3.7360    -1.2320     0.1450 c6         1 5JY      -0.062700
     18 C18         -4.8540    -1.5090    -0.8590 c3         1 5JY      -0.071400
     19 C19         -6.1490    -0.7560    -0.5830 c3         1 5JY      -0.088100
     20 C20         -3.2820     0.2260     0.1330 c6         1 5JY      -0.068900
     21 C21         -2.1150     0.4610     1.0950 c6         1 5JY      -0.043700
     22 C22         -0.1220     2.1410    -0.7620 ca         1 5JY      -0.078750
     23 C23          0.1970     3.4680    -1.0160 ca         1 5JY      -0.197000
     24 H1           1.0410     5.7630    -1.2030 ho         1 5JY       0.424500
     25 H2           2.7850     3.8000     1.1420 ha         1 5JY       0.138250
     26 H3           2.2170     1.4510     1.5650 ha         1 5JY       0.135000
     27 H5           1.8410    -0.2730    -1.7520 ha         1 5JY       0.135000
     28 H6           3.7370    -1.7730    -2.1090 ha         1 5JY       0.138250
     29 H7           5.0340    -3.4290    -1.1770 ho         1 5JY       0.424500
     30 H8           3.2260    -3.3520     1.8450 ha         1 5JY       0.138250
     31 H9           1.3120    -1.8520     2.1860 ha         1 5JY       0.135000
     32 H11         -0.5600    -2.5800     0.6250 hc         1 5JY       0.050700
     33 H12         -1.7070    -2.1400     1.8790 hc         1 5JY       0.050700
     34 H13         -2.1860    -2.0110    -1.1330 hc         1 5JY       0.040200
     35 H14         -2.8600    -3.1970    -0.0280 hc         1 5JY       0.040200
     36 H15         -4.1180    -1.4530     1.1530 hc         1 5JY       0.044700
     37 H16         -4.4950    -1.2660    -1.8650 hc         1 5JY       0.037700
     38 H17         -5.0620    -2.5830    -0.8630 hc         1 5JY       0.037700
     39 H18         -6.5220    -0.9670     0.4220 hc         1 5JY       0.031700
     40 H19         -6.0210     0.3240    -0.6670 hc         1 5JY       0.031700
     41 H20         -6.9280    -1.0460    -1.2900 hc         1 5JY       0.031700
     42 H21         -2.9760     0.5000    -0.8840 hc         1 5JY       0.040200
     43 H22         -4.1080     0.8900     0.4010 hc         1 5JY       0.040200
     44 H23         -2.4600     0.2390     2.1130 hc         1 5JY       0.050700
     45 H24         -1.8180     1.5090     1.0890 hc         1 5JY       0.050700
     46 H25         -0.9300     1.6840    -1.3200 ha         1 5JY       0.135000
     47 H26         -0.3680     4.0250    -1.7550 ha         1 5JY       0.138250
@<TRIPOS>BOND
     1     1     2 1   
     2     1    24 1   
     3     2     3 ar  
     4     2    23 ar  
     5     3     4 ar  
     6     3    25 1   
     7     4     5 ar  
     8     4    26 1   
     9     5     6 1   
    10     5    22 ar  
    11     6     7 1   
    12     6    14 2   
    13     7     8 ar  
    14     7    13 ar  
    15     8     9 ar  
    16     8    27 1   
    17     9    10 ar  
    18     9    28 1   
    19    10    11 1   
    20    10    12 ar  
    21    11    29 1   
    22    12    13 ar  
    23    12    30 1   
    24    13    31 1   
    25    14    15 1   
    26    14    21 1   
    27    15    16 1   
    28    15    32 1   
    29    15    33 1   
    30    16    17 1   
    31    16    34 1   
    32    16    35 1   
    33    17    18 1   
    34    17    20 1   
    35    17    36 1   
    36    18    19 1   
    37    18    37 1   
    38    18    38 1   
    39    19    39 1   
    40    19    40 1   
    41    19    41 1   
    42    20    21 1   
    43    20    42 1   
    44    20    43 1   
    45    21    44 1   
    46    21    45 1   
    47    22    23 ar  
    48    22    46 1   
    49    23    47 1   
@<TRIPOS>SUBSTRUCTURE
     1 5JY         1 TEMP              0 ****  ****    0 ROOT
