@<TRIPOS>MOLECULE
5JY
   47    49     1     0     0
SMALL
No Charge or Current Charge


@<TRIPOS>ATOM
      1 O01          1.7180     5.4280    -0.3880 oh         1 5JY      -0.534100
      2 C02          1.3670     4.1240    -0.2080 ca         1 5JY       0.138100
      3 C03          1.9670     3.3790     0.8160 ca         1 5JY      -0.179000
      4 C04          1.6120     2.0320     1.0100 ca         1 5JY      -0.060750
      5 C05          0.6460     1.4290     0.1820 ca         1 5JY      -0.082300
      6 C06          0.2890    -0.0060     0.3760 ce         1 5JY      -0.011400
      7 C07          1.4350    -0.9410     0.1850 ca         1 5JY      -0.082300
      8 C08          2.1110    -0.9830    -1.0500 ca         1 5JY      -0.060750
      9 C09          3.2050    -1.8480    -1.2310 ca         1 5JY      -0.179000
     10 C10          3.6320    -2.6680    -0.1750 ca         1 5JY       0.138100
     11 O11          4.6920    -3.5080    -0.3420 oh         1 5JY      -0.534100
     12 C12          2.9720    -2.6220     1.0610 ca         1 5JY      -0.179000
     13 C13          1.8780    -1.7580     1.2440 ca         1 5JY      -0.060750
     14 C14         -0.9690    -0.4240     0.6950 c2         1 5JY      -0.083400
     15 C15         -1.3800    -1.8940     0.8130 c6         1 5JY      -0.043700
     16 C16         -2.5850    -2.2120    -0.1070 c6         1 5JY      -0.068900
     17 C17         -3.7890    -1.2680     0.1610 c6         1 5JY      -0.062700
     18 C18         -4.9830    -1.6140    -0.7820 c3         1 5JY      -0.071400
     19 C19         -6.2910    -0.8410    -0.5070 c3         1 5JY      -0.088100
     20 C20         -3.3410     0.2180     0.0400 c6         1 5JY      -0.068900
     21 C21         -2.1430     0.5210     0.9700 c6         1 5JY      -0.043700
     22 C22          0.0560     2.1790    -0.8540 ca         1 5JY      -0.060750
     23 C23          0.4120     3.5260    -1.0460 ca         1 5JY      -0.179000
     24 H1           1.2030     5.7860    -1.1430 ho         1 5JY       0.463500
     25 H2           2.7100     3.8410     1.4610 ha         1 5JY       0.120250
     26 H3           2.0840     1.4570     1.8030 ha         1 5JY       0.117000
     27 H5           1.7840    -0.3470    -1.8690 ha         1 5JY       0.117000
     28 H6           3.7150    -1.8740    -2.1920 ha         1 5JY       0.120250
     29 H7           5.0260    -3.4060    -1.2590 ho         1 5JY       0.463500
     30 H8           3.3070    -3.2530     1.8800 ha         1 5JY       0.120250
     31 H9           1.3740    -1.7200     2.2070 ha         1 5JY       0.117000
     32 H11         -0.5600    -2.5730     0.5530 hc         1 5JY       0.050700
     33 H12         -1.6420    -2.1170     1.8570 hc         1 5JY       0.050700
     34 H13         -2.2700    -2.1230    -1.1560 hc         1 5JY       0.040200
     35 H14         -2.8870    -3.2580     0.0380 hc         1 5JY       0.040200
     36 H15         -4.1420    -1.4440     1.1870 hc         1 5JY       0.044700
     37 H16         -4.6940    -1.4470    -1.8270 hc         1 5JY       0.037700
     38 H17         -5.2080    -2.6850    -0.6980 hc         1 5JY       0.037700
     39 H18         -6.5990    -0.9590     0.5380 hc         1 5JY       0.031700
     40 H19         -6.1710     0.2280    -0.7180 hc         1 5JY       0.031700
     41 H20         -7.0970    -1.2210    -1.1460 hc         1 5JY       0.031700
     42 H21         -3.0650     0.4430    -0.9990 hc         1 5JY       0.040200
     43 H22         -4.1690     0.8910     0.2980 hc         1 5JY       0.040200
     44 H23         -2.4580     0.3990     2.0150 hc         1 5JY       0.050700
     45 H24         -1.8620     1.5760     0.8740 hc         1 5JY       0.050700
     46 H25         -0.6780     1.7150    -1.5100 ha         1 5JY       0.117000
     47 H26         -0.0550     4.0940    -1.8470 ha         1 5JY       0.120250
@<TRIPOS>BOND
     1     1     2 1   
     2     1    24 1   
     3     2     3 ar  
     4     2    23 ar  
     5     3     4 ar  
     6     3    25 1   
     7     4     5 ar  
     8     4    26 1   
     9     5     6 1   
    10     5    22 ar  
    11     6     7 1   
    12     6    14 2   
    13     7     8 ar  
    14     7    13 ar  
    15     8     9 ar  
    16     8    27 1   
    17     9    10 ar  
    18     9    28 1   
    19    10    11 1   
    20    10    12 ar  
    21    11    29 1   
    22    12    13 ar  
    23    12    30 1   
    24    13    31 1   
    25    14    15 1   
    26    14    21 1   
    27    15    16 1   
    28    15    32 1   
    29    15    33 1   
    30    16    17 1   
    31    16    34 1   
    32    16    35 1   
    33    17    18 1   
    34    17    20 1   
    35    17    36 1   
    36    18    19 1   
    37    18    37 1   
    38    18    38 1   
    39    19    39 1   
    40    19    40 1   
    41    19    41 1   
    42    20    21 1   
    43    20    42 1   
    44    20    43 1   
    45    21    44 1   
    46    21    45 1   
    47    22    23 ar  
    48    22    46 1   
    49    23    47 1   
@<TRIPOS>SUBSTRUCTURE
     1 5JY         1 TEMP              0 ****  ****    0 ROOT
