@<TRIPOS>MOLECULE
5JZ
   87    93     1     0     0
SMALL
bcc


@<TRIPOS>ATOM
      1 C4           3.2490     5.8640    -0.6140 c3         1 5JZ       0.093300
      2 C5         -10.1640     0.5360     2.2100 ca         1 5JZ      -0.141000
      3 C6          -9.2540    -0.3790     2.7280 ca         1 5JZ      -0.116000
      4 C7          -9.9460     1.0680     0.9520 ca         1 5JZ      -0.117000
      5 C8          -8.1390    -0.7380     1.9950 ca         1 5JZ      -0.122000
      6 C10         -4.4480    -1.3040    -0.1830 ca         1 5JZ      -0.148600
      7 C13          6.1700    -0.5070    -0.8670 ca         1 5JZ      -0.082000
      8 C15         -0.3100    -2.2240    -1.6820 cc         1 5JZ       0.466700
      9 C17         -8.6680     1.2970    -1.1900 c6         1 5JZ      -0.026100
     10 C20          5.4740     1.9120    -0.7640 c3         1 5JZ      -0.036100
     11 C21          6.0510     0.6710    -0.1420 ca         1 5JZ      -0.130300
     12 C22         -4.6670    -2.5420    -0.8080 ca         1 5JZ      -0.118000
     13 C24         -2.1610    -1.4120    -0.7800 ca         1 5JZ      -0.065200
     14 C26          7.0620    -1.6530     1.0390 ca         1 5JZ       0.160100
     15 C28         -2.3720    -2.6480    -1.4100 ca         1 5JZ       0.083400
     16 C9           6.4640     0.6670     1.1900 ca         1 5JZ      -0.088000
     17 C14         -3.6360    -3.2280    -1.4190 ca         1 5JZ      -0.086000
     18 C12          6.9640    -0.4790     1.7810 ca         1 5JZ      -0.154000
     19 C11         -3.1850    -0.7270    -0.1430 ca         1 5JZ      -0.045000
     20 C16         -7.3260     0.9610    -1.8210 c6         1 5JZ      -0.102400
     21 C18         -6.9310    -0.4630    -1.4680 c6         1 5JZ       0.099000
     22 C19          6.8160    -2.9450    -1.0730 c6         1 5JZ       0.185700
     23 C1           0.2090     3.9630     1.6170 c3         1 5JZ       0.156400
     24 C23         -8.8240     0.7270     0.1960 ca         1 5JZ      -0.108300
     25 C25         -7.9050    -0.1750     0.7370 ca         1 5JZ       0.061600
     26 C27          6.6710    -1.6710    -0.2950 ca         1 5JZ      -0.197300
     27 C30          1.8970     0.9910    -0.4550 ca         1 5JZ       0.990900
     28 C31         -0.0570    -0.0670    -0.5480 ca         1 5JZ       0.853500
     29 C29          0.0880     1.8680     0.5190 ca         1 5JZ       0.969300
     30 C36          4.0230     2.1640    -0.3340 c3         1 5JZ       0.175500
     31 C33         -5.5430    -0.6270     0.5740 c          1 5JZ       0.683700
     32 C34          3.5340     3.4700    -0.9650 c          1 5JZ       0.658100
     33 C35          7.3120    -3.9970     0.9820 c6         1 5JZ       0.352600
     34 N37         -1.1970    -3.1190    -1.9570 nd         1 5JZ      -0.571100
     35 N40          1.2130    -0.0740    -0.8890 nb         1 5JZ      -0.867000
     36 N38          1.3700     1.9910     0.2570 nb         1 5JZ      -0.911000
     37 N39         -0.6920     0.8550     0.1480 nb         1 5JZ      -0.817000
     38 N41          3.6270     4.5430    -0.1730 ns         1 5JZ      -0.567900
     39 N42          3.1940     1.0610    -0.7460 nu         1 5JZ      -0.833900
     40 N43         -0.8090    -1.1560    -0.9710 na         1 5JZ      -0.196100
     41 N44         -6.7750    -0.5740    -0.0190 n          1 5JZ      -0.386000
     42 O46         -5.3240    -0.1880     1.6900 o          1 5JZ      -0.563100
     43 O47          3.1580     3.5160    -2.1250 o          1 5JZ      -0.589100
     44 O48          7.6250    -3.8670    -0.3750 os         1 5JZ      -0.407600
     45 O49          7.5610    -2.7540     1.6450 os         1 5JZ      -0.337900
     46 O45         -0.5290     2.7990     1.2060 os         1 5JZ      -0.405100
     47 H4           3.8360     6.1800    -1.4760 h1         1 5JZ       0.041700
     48 H4A          2.1920     5.9160    -0.8810 h1         1 5JZ       0.041700
     49 H4B          3.4320     6.5620     0.1980 h1         1 5JZ       0.041700
     50 H6          -9.4190    -0.8230     3.7010 ha         1 5JZ       0.132000
     51 H7         -10.6600     1.7680     0.5330 ha         1 5JZ       0.126000
     52 H8          -7.4550    -1.4710     2.3990 ha         1 5JZ       0.145000
     53 H13          5.8850    -0.5240    -1.9150 ha         1 5JZ       0.130000
     54 H15          0.7310    -2.2640    -1.9600 h5         1 5JZ       0.084800
     55 H17         -8.8230     2.3780    -1.1650 hc         1 5JZ       0.050200
     56 H17A        -9.4710     0.8930    -1.8140 hc         1 5JZ       0.050200
     57 H20          6.0610     2.7850    -0.4750 hc         1 5JZ       0.068700
     58 H20A         5.5190     1.8470    -1.8540 hc         1 5JZ       0.068700
     59 H22         -5.6600    -2.9740    -0.8020 ha         1 5JZ       0.142000
     60 H32         -1.0470     4.3120     3.3410 hc         1 5JZ       0.052367
     61 H32A        -0.1880     5.7270     2.7390 hc         1 5JZ       0.052367
     62 H32B        -1.5970     5.1280     1.8670 hc         1 5JZ       0.052367
     63 H9           6.3970     1.5740     1.7800 ha         1 5JZ       0.129000
     64 H14         -3.8040    -4.1870    -1.8910 ha         1 5JZ       0.151000
     65 H12          7.2810    -0.4700     2.8170 ha         1 5JZ       0.150000
     66 H11         -3.0120     0.2150     0.3510 ha         1 5JZ       0.185000
     67 H16         -7.3810     1.0700    -2.9050 hc         1 5JZ       0.053700
     68 H16A        -6.5470     1.6410    -1.4680 hc         1 5JZ       0.053700
     69 H18         -7.6920    -1.1720    -1.8030 h1         1 5JZ       0.060200
     70 H18A        -6.0000    -0.7290    -1.9590 h1         1 5JZ       0.060200
     71 H19          5.8320    -3.3720    -1.3060 h1         1 5JZ       0.061200
     72 H19A         7.3120    -2.7560    -2.0270 h1         1 5JZ       0.061200
     73 H1           0.5650     4.4940     0.7320 h1         1 5JZ       0.048700
     74 H1A          1.0820     3.6600     2.1970 h1         1 5JZ       0.048700
     75 H36          3.9880     2.2510     0.7570 h1         1 5JZ       0.068700
     76 HN41         3.8540     4.4140     0.7980 hn         1 5JZ       0.315500
     77 HN42         3.5860     0.3130    -1.2960 hn         1 5JZ       0.469800
     78 C2           5.8640    -4.4130     1.2230 c3         1 5JZ      -0.111100
     79 C3           8.2860    -4.9950     1.5710 c3         1 5JZ      -0.111100
     80 H5         -11.0390     0.8230     2.7780 ha         1 5JZ       0.130000
     81 C32         -0.7190     4.8240     2.4370 c3         1 5JZ      -0.100100
     82 H2           5.7150    -4.6280     2.2810 hc         1 5JZ       0.056867
     83 H2A          5.1440    -3.6450     0.9390 hc         1 5JZ       0.056867
     84 H2B          5.6320    -5.3170     0.6590 hc         1 5JZ       0.056867
     85 H3           8.1090    -5.9850     1.1520 hc         1 5JZ       0.056867
     86 H3A          9.3170    -4.7080     1.3590 hc         1 5JZ       0.056867
     87 H3B          8.1570    -5.0590     2.6510 hc         1 5JZ       0.056867
@<TRIPOS>BOND
     1     1    38 1   
     2     1    47 1   
     3     1    48 1   
     4     1    49 1   
     5     2     3 ar  
     6     2     4 ar  
     7     2    80 1   
     8     3     5 ar  
     9     3    50 1   
    10     4    24 ar  
    11     4    51 1   
    12     5    25 ar  
    13     5    52 1   
    14     6    12 ar  
    15     6    19 ar  
    16     6    31 1   
    17     7    11 ar  
    18     7    26 ar  
    19     7    53 1   
    20     8    34 2   
    21     8    40 1   
    22     8    54 1   
    23     9    20 1   
    24     9    24 1   
    25     9    55 1   
    26     9    56 1   
    27    10    11 1   
    28    10    30 1   
    29    10    57 1   
    30    10    58 1   
    31    11    16 ar  
    32    12    17 ar  
    33    12    59 1   
    34    13    15 ar  
    35    13    19 ar  
    36    13    40 1   
    37    14    18 ar  
    38    14    26 ar  
    39    14    45 1   
    40    15    17 ar  
    41    15    34 1   
    42    16    18 ar  
    43    16    63 1   
    44    17    64 1   
    45    18    65 1   
    46    19    66 1   
    47    20    21 1   
    48    20    67 1   
    49    20    68 1   
    50    21    41 1   
    51    21    69 1   
    52    21    70 1   
    53    22    26 1   
    54    22    44 1   
    55    22    71 1   
    56    22    72 1   
    57    23    46 1   
    58    23    73 1   
    59    23    74 1   
    60    23    81 1   
    61    24    25 ar  
    62    25    41 1   
    63    27    35 ar  
    64    27    36 ar  
    65    27    39 1   
    66    28    35 ar  
    67    28    37 ar  
    68    28    40 1   
    69    29    36 ar  
    70    29    37 ar  
    71    29    46 1   
    72    30    32 1   
    73    30    39 1   
    74    30    75 1   
    75    31    41 1   
    76    31    42 2   
    77    32    38 1   
    78    32    43 2   
    79    33    44 1   
    80    33    45 1   
    81    33    78 1   
    82    33    79 1   
    83    38    76 1   
    84    39    77 1   
    85    60    81 1   
    86    61    81 1   
    87    62    81 1   
    88    78    82 1   
    89    78    83 1   
    90    78    84 1   
    91    79    85 1   
    92    79    86 1   
    93    79    87 1   
@<TRIPOS>SUBSTRUCTURE
     1 5JZ         1 TEMP              0 ****  ****    0 ROOT
