@<TRIPOS>MOLECULE
5JZ
   87    93     1     0     0
SMALL
No Charge or Current Charge


@<TRIPOS>ATOM
      1 C4           2.8830     6.0420     0.1070 c3         1 5JZ       0.093300
      2 C5         -10.4290     1.5630     0.2780 ca         1 5JZ      -0.123000
      3 C6          -9.5230     1.4090     1.3370 ca         1 5JZ      -0.098000
      4 C7         -10.1110     1.0560    -0.9910 ca         1 5JZ      -0.099000
      5 C8          -8.3050     0.7410     1.1290 ca         1 5JZ      -0.104000
      6 C10         -4.3910    -0.9560     0.5230 ca         1 5JZ      -0.148600
      7 C13          5.7300    -0.5380    -1.5970 ca         1 5JZ      -0.064000
      8 C15         -0.1590    -2.5480     1.3380 cc         1 5JZ       0.466700
      9 C17         -8.5930    -0.1580    -2.6110 c6         1 5JZ      -0.026100
     10 C20          5.1570     1.9090    -1.1650 c3         1 5JZ      -0.036100
     11 C21          5.8130     0.5910    -0.7560 ca         1 5JZ      -0.130300
     12 C22         -4.6430    -2.3560     0.6210 ca         1 5JZ      -0.100000
     13 C24         -2.0610    -1.4270     0.9530 ca         1 5JZ      -0.065200
     14 C26          7.0030    -1.8430     0.0170 ca         1 5JZ       0.160100
     15 C28         -2.2960    -2.7710     1.0230 ca         1 5JZ       0.083400
     16 C9           6.5080     0.4960     0.4660 ca         1 5JZ      -0.070000
     17 C14         -3.5940    -3.2700     0.8640 ca         1 5JZ      -0.068000
     18 C12          7.1020    -0.7190     0.8490 ca         1 5JZ      -0.136000
     19 C11         -3.0680    -0.4830     0.7100 ca         1 5JZ      -0.027000
     20 C16         -7.1060    -0.5080    -2.8130 c6         1 5JZ      -0.102400
     21 C18         -6.5580    -1.2490    -1.5800 c6         1 5JZ       0.099000
     22 C19          6.2360    -2.9770    -2.1270 c6         1 5JZ       0.208900
     23 C1           0.5900     4.3170     2.8380 c3         1 5JZ       0.179600
     24 C23         -8.8900     0.3880    -1.2100 ca         1 5JZ      -0.108300
     25 C25         -7.9870     0.1900    -0.1330 ca         1 5JZ      -0.031000
     26 C27          6.3250    -1.7550    -1.2150 ca         1 5JZ      -0.197300
     27 C30          1.8120     1.1300     0.5340 ca         1 5JZ       0.464900
     28 C31          0.0180    -0.1180     1.1990 ca         1 5JZ       0.327500
     29 C29          0.3620     2.0160     2.0140 ca         1 5JZ       0.443300
     30 C36          3.9660     2.3100    -0.2590 c3         1 5JZ       0.175500
     31 C33         -5.5020     0.0470     0.2760 c          1 5JZ       0.616700
     32 C34          3.3770     3.7050    -0.6880 c          1 5JZ       0.591100
     33 C35          7.3050    -4.2200    -0.3250 c6         1 5JZ       0.399000
     34 N37         -1.1240    -3.4960     1.2650 nd         1 5JZ      -0.571100
     35 N40          1.1370    -0.0170     0.4480 nb         1 5JZ      -0.341000
     36 N38          1.4850     2.1750     1.2930 nb         1 5JZ      -0.385000
     37 N39         -0.3860     0.8970     1.9970 nb         1 5JZ      -0.291000
     38 N41          3.3920     4.6810     0.2910 ns         1 5JZ      -0.500900
     39 N42          2.9500     1.2130    -0.2370 nu         1 5JZ      -0.889100
     40 N43         -0.7210    -1.2910     1.1540 na         1 5JZ      -0.196100
     41 N44         -6.6840    -0.4000    -0.3680 n          1 5JZ      -0.226400
     42 O46         -5.3990     1.1930     0.7040 o          1 5JZ      -0.563100
     43 O47          2.9380     3.9360    -1.8110 o          1 5JZ      -0.589100
     44 O48          7.2390    -3.9390    -1.7380 os         1 5JZ      -0.454000
     45 O49          7.5980    -3.0200     0.4090 os         1 5JZ      -0.361100
     46 O45         -0.0750     3.0400     2.8250 os         1 5JZ      -0.428300
     47 H4           3.4550     6.5470    -0.6810 h1         1 5JZ       0.041700
     48 H4A          1.8230     6.0050    -0.1770 h1         1 5JZ       0.041700
     49 H4B          2.9860     6.6020     1.0450 h1         1 5JZ       0.041700
     50 H6          -9.7610     1.8120     2.3190 ha         1 5JZ       0.114000
     51 H7         -10.8150     1.1860    -1.8110 ha         1 5JZ       0.108000
     52 H8          -7.6180     0.6360     1.9650 ha         1 5JZ       0.127000
     53 H13          5.2020    -0.4710    -2.5470 ha         1 5JZ       0.112000
     54 H15          0.8990    -2.7050     1.5180 h5         1 5JZ       0.084800
     55 H17         -8.9070     0.5650    -3.3760 hc         1 5JZ       0.050200
     56 H17A        -9.2010    -1.0590    -2.7730 hc         1 5JZ       0.050200
     57 H20          5.9040     2.7120    -1.1370 hc         1 5JZ       0.068700
     58 H20A         4.8120     1.8590    -2.2060 hc         1 5JZ       0.068700
     59 H22         -5.6550    -2.7440     0.5280 ha         1 5JZ       0.124000
     60 H32         -0.1500     4.7880     4.8330 hc         1 5JZ       0.052367
     61 H32A         0.3070     6.2090     3.8700 hc         1 5JZ       0.052367
     62 H32B        -1.2070     5.3490     3.5130 hc         1 5JZ       0.052367
     63 H9           6.5870     1.3610     1.1210 ha         1 5JZ       0.111000
     64 H14         -3.7880    -4.3370     0.9340 ha         1 5JZ       0.133000
     65 H12          7.6360    -0.7910     1.7930 ha         1 5JZ       0.132000
     66 H11         -2.8370     0.5790     0.6560 ha         1 5JZ       0.167000
     67 H16         -6.9800    -1.1220    -3.7150 hc         1 5JZ       0.053700
     68 H16A        -6.5270     0.4120    -2.9720 hc         1 5JZ       0.053700
     69 H18         -7.1150    -2.1850    -1.4280 h1         1 5JZ       0.060200
     70 H18A        -5.5070    -1.5100    -1.7680 h1         1 5JZ       0.060200
     71 H19          5.2360    -3.4300    -2.0600 h1         1 5JZ       0.061200
     72 H19A         6.4090    -2.6860    -3.1740 h1         1 5JZ       0.061200
     73 H1           0.5760     4.7750     1.8400 h1         1 5JZ       0.048700
     74 H1A          1.6340     4.2120     3.1620 h1         1 5JZ       0.048700
     75 H36          4.3590     2.4360     0.7590 h1         1 5JZ       0.068700
     76 HN41         3.7600     4.4200     1.1990 hn         1 5JZ       0.315500
     77 HN42         3.1810     0.3540    -0.7350 hn         1 5JZ       0.525000
     78 C2           5.9680    -4.8300     0.1870 c3         1 5JZ      -0.111100
     79 C3           8.4740    -5.2060    -0.1030 c3         1 5JZ      -0.111100
     80 H5         -11.3720     2.0800     0.4380 ha         1 5JZ       0.112000
     81 C32         -0.1640     5.2200     3.8260 c3         1 5JZ      -0.100100
     82 H2           6.0820    -5.2190     1.2060 hc         1 5JZ       0.056867
     83 H2A          5.1600    -4.0900     0.2140 hc         1 5JZ       0.056867
     84 H2B          5.6450    -5.6620    -0.4500 hc         1 5JZ       0.056867
     85 H3           8.2970    -6.1520    -0.6270 hc         1 5JZ       0.056867
     86 H3A          9.4160    -4.7870    -0.4750 hc         1 5JZ       0.056867
     87 H3B          8.6050    -5.4320     0.9610 hc         1 5JZ       0.056867
@<TRIPOS>BOND
     1     1    38 1   
     2     1    47 1   
     3     1    48 1   
     4     1    49 1   
     5     2     3 ar  
     6     2     4 ar  
     7     2    80 1   
     8     3     5 ar  
     9     3    50 1   
    10     4    24 ar  
    11     4    51 1   
    12     5    25 ar  
    13     5    52 1   
    14     6    12 ar  
    15     6    19 ar  
    16     6    31 1   
    17     7    11 ar  
    18     7    26 ar  
    19     7    53 1   
    20     8    34 2   
    21     8    40 1   
    22     8    54 1   
    23     9    20 1   
    24     9    24 1   
    25     9    55 1   
    26     9    56 1   
    27    10    11 1   
    28    10    30 1   
    29    10    57 1   
    30    10    58 1   
    31    11    16 ar  
    32    12    17 ar  
    33    12    59 1   
    34    13    15 ar  
    35    13    19 ar  
    36    13    40 1   
    37    14    18 ar  
    38    14    26 ar  
    39    14    45 1   
    40    15    17 ar  
    41    15    34 1   
    42    16    18 ar  
    43    16    63 1   
    44    17    64 1   
    45    18    65 1   
    46    19    66 1   
    47    20    21 1   
    48    20    67 1   
    49    20    68 1   
    50    21    41 1   
    51    21    69 1   
    52    21    70 1   
    53    22    26 1   
    54    22    44 1   
    55    22    71 1   
    56    22    72 1   
    57    23    46 1   
    58    23    73 1   
    59    23    74 1   
    60    23    81 1   
    61    24    25 ar  
    62    25    41 1   
    63    27    35 ar  
    64    27    36 ar  
    65    27    39 1   
    66    28    35 ar  
    67    28    37 ar  
    68    28    40 1   
    69    29    36 ar  
    70    29    37 ar  
    71    29    46 1   
    72    30    32 1   
    73    30    39 1   
    74    30    75 1   
    75    31    41 1   
    76    31    42 2   
    77    32    38 1   
    78    32    43 2   
    79    33    44 1   
    80    33    45 1   
    81    33    78 1   
    82    33    79 1   
    83    38    76 1   
    84    39    77 1   
    85    60    81 1   
    86    61    81 1   
    87    62    81 1   
    88    78    82 1   
    89    78    83 1   
    90    78    84 1   
    91    79    85 1   
    92    79    86 1   
    93    79    87 1   
@<TRIPOS>SUBSTRUCTURE
     1 5JZ         1 TEMP              0 ****  ****    0 ROOT
