@<TRIPOS>MOLECULE
5K0
   44    46     1     0     0
SMALL
abcg2


@<TRIPOS>ATOM
      1 O01          4.7750     2.9590    -0.0990 oh         1 5K0      -0.534600
      2 C02          3.6370     2.2390    -0.0300 ca         1 5K0       0.138100
      3 C03          2.6970     2.2170    -1.0580 ca         1 5K0      -0.179000
      4 C04          1.5440     1.4600    -0.9270 ca         1 5K0      -0.060750
      5 C05          1.2970     0.6940     0.2120 ca         1 5K0      -0.082800
      6 C06          0.0410    -0.0840     0.3440 ce         1 5K0      -0.011400
      7 C07         -1.1930     0.6980     0.0790 ca         1 5K0      -0.082800
      8 C08         -1.4320     1.9030     0.7390 ca         1 5K0      -0.060750
      9 C09         -2.5690     2.6550     0.4880 ca         1 5K0      -0.179000
     10 C10         -3.4980     2.2210    -0.4550 ca         1 5K0       0.138100
     11 O11         -4.6210     2.9130    -0.7420 oh         1 5K0      -0.534600
     12 C12         -3.2670     1.0330    -1.1420 ca         1 5K0      -0.179000
     13 C13         -2.1270     0.2920    -0.8750 ca         1 5K0      -0.060750
     14 C14          0.0190    -1.3880     0.6780 c2         1 5K0      -0.082400
     15 C15          1.2390    -2.2660     0.7400 c6         1 5K0      -0.043700
     16 C16          1.0740    -3.4530    -0.2170 c6         1 5K0      -0.068400
     17 C17         -0.1900    -4.2640     0.0540 c6         1 5K0      -0.063700
     18 C18         -0.3320    -5.4100    -0.9390 c3         1 5K0      -0.086100
     19 C19         -1.4120    -3.3490     0.0380 c6         1 5K0      -0.068400
     20 C20         -1.2370    -2.1580     0.9810 c6         1 5K0      -0.043700
     21 C21          2.2450     0.7410     1.2360 ca         1 5K0      -0.060750
     22 C22          3.4010     1.4970     1.1240 ca         1 5K0      -0.179000
     23 H1           4.8170     3.4400    -0.9330 ho         1 5K0       0.464000
     24 H2           2.8630     2.7940    -1.9620 ha         1 5K0       0.120500
     25 H3           0.8230     1.4660    -1.7350 ha         1 5K0       0.117250
     26 H5          -0.7200     2.2650     1.4700 ha         1 5K0       0.117250
     27 H6          -2.7290     3.5830     1.0260 ha         1 5K0       0.120500
     28 H7          -4.6710     3.7080    -0.2000 ho         1 5K0       0.464000
     29 H8          -3.9740     0.6950    -1.8900 ha         1 5K0       0.120500
     30 H9          -1.9570    -0.6210    -1.4330 ha         1 5K0       0.117250
     31 H11          2.1500    -1.7250     0.4910 hc         1 5K0       0.050700
     32 H12          1.3670    -2.6490     1.7600 hc         1 5K0       0.050700
     33 H13          1.0440    -3.0770    -1.2470 hc         1 5K0       0.040700
     34 H14          1.9550    -4.0990    -0.1490 hc         1 5K0       0.040700
     35 H15         -0.1060    -4.6910     1.0630 hc         1 5K0       0.044700
     36 H16          0.5310    -6.0750    -0.9000 hc         1 5K0       0.032700
     37 H17         -1.2220    -6.0090    -0.7380 hc         1 5K0       0.032700
     38 H18         -0.4120    -5.0290    -1.9600 hc         1 5K0       0.032700
     39 H19         -1.5780    -2.9830    -0.9820 hc         1 5K0       0.040700
     40 H20         -2.3080    -3.9100     0.3170 hc         1 5K0       0.040700
     41 H21         -1.1520    -2.5420     2.0060 hc         1 5K0       0.050700
     42 H22         -2.1230    -1.5240     0.9650 hc         1 5K0       0.050700
     43 H23          2.0710     0.1830     2.1480 ha         1 5K0       0.117250
     44 H24          4.1170     1.5210     1.9360 ha         1 5K0       0.120500
@<TRIPOS>BOND
     1     1     2 1   
     2     1    23 1   
     3     2     3 ar  
     4     2    22 ar  
     5     3     4 ar  
     6     3    24 1   
     7     4     5 ar  
     8     4    25 1   
     9     5     6 1   
    10     5    21 ar  
    11     6     7 1   
    12     6    14 2   
    13     7     8 ar  
    14     7    13 ar  
    15     8     9 ar  
    16     8    26 1   
    17     9    10 ar  
    18     9    27 1   
    19    10    11 1   
    20    10    12 ar  
    21    11    28 1   
    22    12    13 ar  
    23    12    29 1   
    24    13    30 1   
    25    14    15 1   
    26    14    20 1   
    27    15    16 1   
    28    15    31 1   
    29    15    32 1   
    30    16    17 1   
    31    16    33 1   
    32    16    34 1   
    33    17    18 1   
    34    17    19 1   
    35    17    35 1   
    36    18    36 1   
    37    18    37 1   
    38    18    38 1   
    39    19    20 1   
    40    19    39 1   
    41    19    40 1   
    42    20    41 1   
    43    20    42 1   
    44    21    22 ar  
    45    21    43 1   
    46    22    44 1   
@<TRIPOS>SUBSTRUCTURE
     1 5K0         1 TEMP              0 ****  ****    0 ROOT
