@<TRIPOS>MOLECULE
5K0
   44    46     1     0     0
SMALL
No Charge or Current Charge


@<TRIPOS>ATOM
      1 O01          4.7850     2.9450    -0.2270 oh         1 5K0      -0.534600
      2 C02          3.6370     2.2230    -0.1020 ca         1 5K0       0.138100
      3 C03          2.7540     2.1010    -1.1870 ca         1 5K0      -0.179000
      4 C04          1.5700     1.3540    -1.0490 ca         1 5K0      -0.060750
      5 C05          1.2700     0.7190     0.1720 ca         1 5K0      -0.082800
      6 C06          0.0030    -0.0540     0.3170 ce         1 5K0      -0.011400
      7 C07         -1.2260     0.7610     0.0940 ca         1 5K0      -0.082800
      8 C08         -1.5010     1.8640     0.9260 ca         1 5K0      -0.060750
      9 C09         -2.6470     2.6490     0.7070 ca         1 5K0      -0.179000
     10 C10         -3.5180     2.3390    -0.3500 ca         1 5K0       0.138100
     11 O11         -4.6290     3.0960    -0.5690 oh         1 5K0      -0.534600
     12 C12         -3.2420     1.2510    -1.1900 ca         1 5K0      -0.179000
     13 C13         -2.0970     0.4650    -0.9730 ca         1 5K0      -0.060750
     14 C14         -0.0300    -1.3830     0.6230 c2         1 5K0      -0.082400
     15 C15          1.2200    -2.2580     0.7710 c6         1 5K0      -0.043700
     16 C16          1.1500    -3.4970    -0.1550 c6         1 5K0      -0.068400
     17 C17         -0.1510    -4.3140     0.0720 c6         1 5K0      -0.063700
     18 C18         -0.2210    -5.5450    -0.8700 c3         1 5K0      -0.086100
     19 C19         -1.3980    -3.4040    -0.0890 c6         1 5K0      -0.068400
     20 C20         -1.3190    -2.1790     0.8510 c6         1 5K0      -0.043700
     21 C21          2.1540     0.8560     1.2600 ca         1 5K0      -0.060750
     22 C22          3.3370     1.6030     1.1200 ca         1 5K0      -0.179000
     23 H1           4.8280     3.3030    -1.1400 ho         1 5K0       0.464000
     24 H2           2.9760     2.5820    -2.1360 ha         1 5K0       0.120500
     25 H3           0.8870     1.2640    -1.8900 ha         1 5K0       0.117250
     26 H5          -0.8260     2.1080     1.7430 ha         1 5K0       0.117250
     27 H6          -2.8500     3.4950     1.3600 ha         1 5K0       0.120500
     28 H7          -4.6590     3.8060     0.1070 ho         1 5K0       0.464000
     29 H8          -3.9140     1.0150    -2.0120 ha         1 5K0       0.120500
     30 H9          -1.8830    -0.3740    -1.6320 ha         1 5K0       0.117250
     31 H11          2.1390    -1.7070     0.5380 hc         1 5K0       0.050700
     32 H12          1.3150    -2.5820     1.8160 hc         1 5K0       0.050700
     33 H13          1.2030    -3.1690    -1.2030 hc         1 5K0       0.040700
     34 H14          2.0280    -4.1340     0.0160 hc         1 5K0       0.040700
     35 H15         -0.1390    -4.7110     1.0970 hc         1 5K0       0.044700
     36 H16          0.6440    -6.2030    -0.7250 hc         1 5K0       0.032700
     37 H17         -1.1230    -6.1390    -0.6780 hc         1 5K0       0.032700
     38 H18         -0.2370    -5.2420    -1.9240 hc         1 5K0       0.032700
     39 H19         -1.4800    -3.0610    -1.1300 hc         1 5K0       0.040700
     40 H20         -2.3110    -3.9750     0.1260 hc         1 5K0       0.040700
     41 H21         -1.3430    -2.5220     1.8950 hc         1 5K0       0.050700
     42 H22         -2.2180    -1.5630     0.7290 hc         1 5K0       0.050700
     43 H23          1.9220     0.3840     2.2120 ha         1 5K0       0.117250
     44 H24          4.0180     1.7030     1.9610 ha         1 5K0       0.120500
@<TRIPOS>BOND
     1     1     2 1   
     2     1    23 1   
     3     2     3 ar  
     4     2    22 ar  
     5     3     4 ar  
     6     3    24 1   
     7     4     5 ar  
     8     4    25 1   
     9     5     6 1   
    10     5    21 ar  
    11     6     7 1   
    12     6    14 2   
    13     7     8 ar  
    14     7    13 ar  
    15     8     9 ar  
    16     8    26 1   
    17     9    10 ar  
    18     9    27 1   
    19    10    11 1   
    20    10    12 ar  
    21    11    28 1   
    22    12    13 ar  
    23    12    29 1   
    24    13    30 1   
    25    14    15 1   
    26    14    20 1   
    27    15    16 1   
    28    15    31 1   
    29    15    32 1   
    30    16    17 1   
    31    16    33 1   
    32    16    34 1   
    33    17    18 1   
    34    17    19 1   
    35    17    35 1   
    36    18    36 1   
    37    18    37 1   
    38    18    38 1   
    39    19    20 1   
    40    19    39 1   
    41    19    40 1   
    42    20    41 1   
    43    20    42 1   
    44    21    22 ar  
    45    21    43 1   
    46    22    44 1   
@<TRIPOS>SUBSTRUCTURE
     1 5K0         1 TEMP              0 ****  ****    0 ROOT
