@<TRIPOS>MOLECULE
5K1
   45    47     1     0     0
SMALL
bcc


@<TRIPOS>ATOM
      1 O01          5.8640     1.2890    -0.5430 oh         1 5K1      -0.494100
      2 C02          4.5550     1.0280    -0.3530 ca         1 5K1       0.140600
      3 C03          4.2110     0.0680     0.5980 ca         1 5K1      -0.196750
      4 C04          2.8810    -0.2380     0.8220 ca         1 5K1      -0.077000
      5 C05          1.8530     0.4070     0.1300 ca         1 5K1      -0.087300
      6 C06          0.4340     0.0450     0.3750 ce         1 5K1      -0.001400
      7 C07          0.1440    -1.4030     0.2260 ca         1 5K1      -0.087300
      8 C08         -0.4670    -2.1420     1.2390 ca         1 5K1      -0.077000
      9 C09         -0.7010    -3.5010     1.1090 ca         1 5K1      -0.196750
     10 C10         -0.3180    -4.1640    -0.0540 ca         1 5K1       0.140600
     11 O11         -0.5630    -5.4870    -0.1380 oh         1 5K1      -0.494100
     12 C12          0.3040    -3.4470    -1.0730 ca         1 5K1      -0.196750
     13 C13          0.5360    -2.0890    -0.9230 ca         1 5K1      -0.077000
     14 C14         -0.5000     0.9530     0.7140 c2         1 5K1      -0.090400
     15 C15         -0.2040     2.3950     1.0200 c6         1 5K1      -0.045200
     16 C16         -0.9980     3.3310     0.1100 c6         1 5K1      -0.071400
     17 C17         -2.4910     3.0330     0.1940 c6         1 5K1      -0.074400
     18 C18         -2.7690     1.5680    -0.1150 c6         1 5K1       0.038400
     19 S19         -4.5280     1.1330     0.0740 ss         1 5K1      -0.349200
     20 C20         -5.2650     2.0210    -1.3160 c3         1 5K1      -0.004000
     21 C21         -1.9700     0.6380     0.8080 c6         1 5K1      -0.031200
     22 C22          2.2180     1.3520    -0.8260 ca         1 5K1      -0.077000
     23 C23          3.5470     1.6660    -1.0690 ca         1 5K1      -0.196750
     24 H1           5.9760     1.9650    -1.2200 ho         1 5K1       0.425000
     25 H2           4.9890    -0.4380     1.1570 ha         1 5K1       0.138750
     26 H3           2.6390    -0.9930     1.5600 ha         1 5K1       0.135250
     27 H5          -0.7580    -1.6480     2.1590 ha         1 5K1       0.135250
     28 H6          -1.1720    -4.0520     1.9140 ha         1 5K1       0.138750
     29 H7          -0.2310    -5.8370    -0.9720 ho         1 5K1       0.425000
     30 H8           0.6150    -3.9490    -1.9830 ha         1 5K1       0.138750
     31 H9           1.0310    -1.5530    -1.7250 ha         1 5K1       0.135250
     32 H11         -0.5140     2.5840     2.0560 hc         1 5K1       0.053700
     33 H12          0.8600     2.6180     0.9700 hc         1 5K1       0.053700
     34 H13         -0.8100     4.3700     0.3880 hc         1 5K1       0.041700
     35 H14         -0.6560     3.2150    -0.9240 hc         1 5K1       0.041700
     36 H15         -2.8560     3.2560     1.2020 hc         1 5K1       0.048200
     37 H16         -3.0390     3.6800    -0.4940 hc         1 5K1       0.048200
     38 H17         -2.4850     1.3520    -1.1510 h1         1 5K1       0.066700
     39 H18         -5.1440     3.0990    -1.2220 h1         1 5K1       0.058700
     40 H19         -4.8400     1.6900    -2.2620 h1         1 5K1       0.058700
     41 H20         -6.3300     1.7950    -1.3160 h1         1 5K1       0.058700
     42 H21         -2.1810    -0.3960     0.5420 hc         1 5K1       0.064200
     43 H22         -2.3130     0.7850     1.8400 hc         1 5K1       0.064200
     44 H23          1.4520     1.8500    -1.4080 ha         1 5K1       0.135250
     45 H24          3.7930     2.4040    -1.8240 ha         1 5K1       0.138750
@<TRIPOS>BOND
     1     1     2 1   
     2     1    24 1   
     3     2     3 ar  
     4     2    23 ar  
     5     3     4 ar  
     6     3    25 1   
     7     4     5 ar  
     8     4    26 1   
     9     5     6 1   
    10     5    22 ar  
    11     6     7 1   
    12     6    14 2   
    13     7     8 ar  
    14     7    13 ar  
    15     8     9 ar  
    16     8    27 1   
    17     9    10 ar  
    18     9    28 1   
    19    10    11 1   
    20    10    12 ar  
    21    11    29 1   
    22    12    13 ar  
    23    12    30 1   
    24    13    31 1   
    25    14    15 1   
    26    14    21 1   
    27    15    16 1   
    28    15    32 1   
    29    15    33 1   
    30    16    17 1   
    31    16    34 1   
    32    16    35 1   
    33    17    18 1   
    34    17    36 1   
    35    17    37 1   
    36    18    19 1   
    37    18    21 1   
    38    18    38 1   
    39    19    20 1   
    40    20    39 1   
    41    20    40 1   
    42    20    41 1   
    43    21    42 1   
    44    21    43 1   
    45    22    23 ar  
    46    22    44 1   
    47    23    45 1   
@<TRIPOS>SUBSTRUCTURE
     1 5K1         1 TEMP              0 ****  ****    0 ROOT
