@<TRIPOS>MOLECULE
5K1
   45    47     1     0     0
SMALL
No Charge or Current Charge


@<TRIPOS>ATOM
      1 O01          5.9310     1.2800    -0.4970 oh         1 5K1      -0.533100
      2 C02          4.6170     0.9940    -0.2830 ca         1 5K1       0.140600
      3 C03          4.2550     0.1200     0.7520 ca         1 5K1      -0.178750
      4 C04          2.9010    -0.1810     0.9800 ca         1 5K1      -0.059000
      5 C05          1.9010     0.3990     0.1760 ca         1 5K1      -0.087300
      6 C06          0.4690     0.0580     0.4070 ce         1 5K1      -0.001400
      7 C07          0.1570    -1.3870     0.2210 ca         1 5K1      -0.087300
      8 C08         -0.3270    -2.1610     1.2950 ca         1 5K1      -0.059000
      9 C09         -0.6000    -3.5280     1.1160 ca         1 5K1      -0.178750
     10 C10         -0.3850    -4.1300    -0.1330 ca         1 5K1       0.140600
     11 O11         -0.6520    -5.4560    -0.2970 oh         1 5K1      -0.533100
     12 C12          0.1090    -3.3690    -1.2040 ca         1 5K1      -0.178750
     13 C13          0.3830    -2.0010    -1.0270 ca         1 5K1      -0.059000
     14 C14         -0.4710     0.9840     0.7520 c2         1 5K1      -0.090400
     15 C15         -0.1630     2.4610     1.0170 c6         1 5K1      -0.045200
     16 C16         -1.0080     3.3770     0.1030 c6         1 5K1      -0.071400
     17 C17         -2.5190     3.0780     0.2650 c6         1 5K1      -0.074400
     18 C18         -2.8310     1.5820     0.0020 c6         1 5K1       0.086300
     19 S19         -4.6340     1.2070     0.1920 ss         1 5K1      -0.445000
     20 C20         -5.2760     1.8190    -1.4330 c3         1 5K1       0.043900
     21 C21         -1.9650     0.6700     0.9070 c6         1 5K1      -0.031200
     22 C22          2.2710     1.2660    -0.8710 ca         1 5K1      -0.059000
     23 C23          3.6260     1.5670    -1.0980 ca         1 5K1      -0.178750
     24 H1           5.9950     1.9000    -1.2540 ho         1 5K1       0.464000
     25 H2           5.0230    -0.3260     1.3790 ha         1 5K1       0.120750
     26 H3           2.6260    -0.8630     1.7820 ha         1 5K1       0.117250
     27 H5          -0.4880    -1.7000     2.2670 ha         1 5K1       0.117250
     28 H6          -0.9770    -4.1200     1.9460 ha         1 5K1       0.120750
     29 H7          -0.4420    -5.7020    -1.2230 ho         1 5K1       0.464000
     30 H8           0.2840    -3.8280    -2.1740 ha         1 5K1       0.120750
     31 H9           0.7680    -1.4140    -1.8580 ha         1 5K1       0.117250
     32 H11         -0.3900     2.6880     2.0680 hc         1 5K1       0.053700
     33 H12          0.9010     2.6960     0.8930 hc         1 5K1       0.053700
     34 H13         -0.8080     4.4310     0.3410 hc         1 5K1       0.041700
     35 H14         -0.7100     3.2300    -0.9440 hc         1 5K1       0.041700
     36 H15         -2.8430     3.3510     1.2780 hc         1 5K1       0.048200
     37 H16         -3.0920     3.7090    -0.4270 hc         1 5K1       0.048200
     38 H17         -2.5690     1.3530    -1.0420 h1         1 5K1       0.066700
     39 H18         -5.0840     2.8950    -1.5320 h1         1 5K1       0.058700
     40 H19         -4.7790     1.2870    -2.2550 h1         1 5K1       0.058700
     41 H20         -6.3570     1.6420    -1.4940 h1         1 5K1       0.058700
     42 H21         -2.1910    -0.3730     0.6580 hc         1 5K1       0.064200
     43 H22         -2.2580     0.8040     1.9570 hc         1 5K1       0.064200
     44 H23          1.5060     1.7040    -1.5090 ha         1 5K1       0.117250
     45 H24          3.8970     2.2410    -1.9070 ha         1 5K1       0.120750
@<TRIPOS>BOND
     1     1     2 1   
     2     1    24 1   
     3     2     3 ar  
     4     2    23 ar  
     5     3     4 ar  
     6     3    25 1   
     7     4     5 ar  
     8     4    26 1   
     9     5     6 1   
    10     5    22 ar  
    11     6     7 1   
    12     6    14 2   
    13     7     8 ar  
    14     7    13 ar  
    15     8     9 ar  
    16     8    27 1   
    17     9    10 ar  
    18     9    28 1   
    19    10    11 1   
    20    10    12 ar  
    21    11    29 1   
    22    12    13 ar  
    23    12    30 1   
    24    13    31 1   
    25    14    15 1   
    26    14    21 1   
    27    15    16 1   
    28    15    32 1   
    29    15    33 1   
    30    16    17 1   
    31    16    34 1   
    32    16    35 1   
    33    17    18 1   
    34    17    36 1   
    35    17    37 1   
    36    18    19 1   
    37    18    21 1   
    38    18    38 1   
    39    19    20 1   
    40    20    39 1   
    41    20    40 1   
    42    20    41 1   
    43    21    42 1   
    44    21    43 1   
    45    22    23 ar  
    46    22    44 1   
    47    23    45 1   
@<TRIPOS>SUBSTRUCTURE
     1 5K1         1 TEMP              0 ****  ****    0 ROOT
