@<TRIPOS>MOLECULE
5K2
   45    48     1     0     0
SMALL
abcg2


@<TRIPOS>ATOM
      1 C01         -0.8390    -2.0040    -1.0730 c6         1 5K2      -0.042200
      2 C02         -1.8030    -2.6790    -0.1030 c6         1 5K2      -0.026100
      3 C03         -3.0890    -1.9090     0.0460 ca         1 5K2      -0.072300
      4 C04         -4.2270    -2.5460     0.5430 ca         1 5K2      -0.109000
      5 C05         -5.4230    -1.8650     0.7000 ca         1 5K2      -0.111000
      6 C06         -5.4940    -0.5200     0.3550 ca         1 5K2      -0.110000
      7 C07         -4.3700     0.1190    -0.1390 ca         1 5K2      -0.111000
      8 C08         -3.1610    -0.5590    -0.3000 ca         1 5K2      -0.068300
      9 C09         -1.9740     0.1980    -0.8560 c6         1 5K2       0.001100
     10 C10         -0.6790    -0.5540    -0.7280 c2         1 5K2      -0.084400
     11 C11          0.4770     0.0130    -0.3430 ce         1 5K2      -0.004400
     12 C12          0.6260     1.4720    -0.1260 ca         1 5K2      -0.085800
     13 C13          0.2800     2.4010    -1.1040 ca         1 5K2      -0.059500
     14 C14          0.4460     3.7640    -0.9040 ca         1 5K2      -0.179250
     15 C15          0.9710     4.2320     0.2960 ca         1 5K2       0.140100
     16 O01          1.1580     5.5430     0.5500 oh         1 5K2      -0.533600
     17 C16          1.3350     3.3170     1.2840 ca         1 5K2      -0.179250
     18 C17          1.1700     1.9620     1.0640 ca         1 5K2      -0.059500
     19 C18          1.7180    -0.7710    -0.1170 ca         1 5K2      -0.085800
     20 C19          1.7740    -1.8240     0.7960 ca         1 5K2      -0.059500
     21 C20          2.9440    -2.5340     1.0160 ca         1 5K2      -0.179250
     22 C21          4.1030    -2.1970     0.3220 ca         1 5K2       0.140100
     23 O02          5.2190    -2.9130     0.5670 oh         1 5K2      -0.533600
     24 C22          4.0700    -1.1400    -0.5860 ca         1 5K2      -0.179250
     25 C23          2.8940    -0.4370    -0.7880 ca         1 5K2      -0.059500
     26 H1           0.1100    -2.5370    -1.0930 hc         1 5K2       0.054700
     27 H2          -2.0180    -3.6970    -0.4360 hc         1 5K2       0.049700
     28 H3          -1.3240    -2.7760     0.8770 hc         1 5K2       0.049700
     29 H4          -4.1690    -3.5970     0.8050 ha         1 5K2       0.109000
     30 H5          -6.2940    -2.3790     1.0850 ha         1 5K2       0.112000
     31 H6          -6.4220     0.0260     0.4710 ha         1 5K2       0.112000
     32 H7          -4.4270     1.1680    -0.4070 ha         1 5K2       0.109000
     33 H8          -2.1700     0.4060    -1.9150 hc         1 5K2       0.059700
     34 H9          -1.9150     1.1730    -0.3700 hc         1 5K2       0.059700
     35 H11         -0.1140     2.0590    -2.0530 ha         1 5K2       0.117500
     36 H12          0.1730     4.4590    -1.6910 ha         1 5K2       0.120500
     37 H13          0.8750     6.0730    -0.2030 ho         1 5K2       0.464000
     38 H14          1.7490     3.6730     2.2190 ha         1 5K2       0.120500
     39 H15          1.4680     1.2670     1.8410 ha         1 5K2       0.117500
     40 H16          0.8890    -2.0920     1.3600 ha         1 5K2       0.117500
     41 H17          2.9630    -3.3450     1.7340 ha         1 5K2       0.120500
     42 H18          5.9500    -2.5890     0.0280 ho         1 5K2       0.464000
     43 H19          4.9630    -0.8630    -1.1350 ha         1 5K2       0.120500
     44 H20          2.8910     0.3850    -1.4930 ha         1 5K2       0.117500
     45 H21         -1.2580    -2.0700    -2.0850 hc         1 5K2       0.054700
@<TRIPOS>BOND
     1     1     2 1   
     2     1    10 1   
     3     1    26 1   
     4     1    45 1   
     5     2     3 1   
     6     2    27 1   
     7     2    28 1   
     8     3     4 ar  
     9     3     8 ar  
    10     4     5 ar  
    11     4    29 1   
    12     5     6 ar  
    13     5    30 1   
    14     6     7 ar  
    15     6    31 1   
    16     7     8 ar  
    17     7    32 1   
    18     8     9 1   
    19     9    10 1   
    20     9    33 1   
    21     9    34 1   
    22    10    11 2   
    23    11    12 1   
    24    11    19 1   
    25    12    13 ar  
    26    12    18 ar  
    27    13    14 ar  
    28    13    35 1   
    29    14    15 ar  
    30    14    36 1   
    31    15    16 1   
    32    15    17 ar  
    33    16    37 1   
    34    17    18 ar  
    35    17    38 1   
    36    18    39 1   
    37    19    20 ar  
    38    19    25 ar  
    39    20    21 ar  
    40    20    40 1   
    41    21    22 ar  
    42    21    41 1   
    43    22    23 1   
    44    22    24 ar  
    45    23    42 1   
    46    24    25 ar  
    47    24    43 1   
    48    25    44 1   
@<TRIPOS>SUBSTRUCTURE
     1 5K2         1 TEMP              0 ****  ****    0 ROOT
