@<TRIPOS>MOLECULE
5K2
   45    48     1     0     0
SMALL
No Charge or Current Charge


@<TRIPOS>ATOM
      1 C01         -0.8390    -2.0420    -0.9860 c6         1 5K2      -0.042200
      2 C02         -1.8420    -2.6940    -0.0150 c6         1 5K2      -0.026100
      3 C03         -3.1610    -1.9210     0.0610 ca         1 5K2      -0.072300
      4 C04         -4.3210    -2.5790     0.5120 ca         1 5K2      -0.109000
      5 C05         -5.5430    -1.8910     0.5940 ca         1 5K2      -0.111000
      6 C06         -5.6110    -0.5380     0.2280 ca         1 5K2      -0.110000
      7 C07         -4.4570     0.1270    -0.2180 ca         1 5K2      -0.111000
      8 C08         -3.2260    -0.5530    -0.3030 ca         1 5K2      -0.068300
      9 C09         -1.9870     0.2120    -0.7900 c6         1 5K2       0.001100
     10 C10         -0.6710    -0.5610    -0.6630 c2         1 5K2      -0.084400
     11 C11          0.5140     0.0160    -0.3110 ce         1 5K2      -0.004400
     12 C12          0.6680     1.4820    -0.0810 ca         1 5K2      -0.085800
     13 C13          0.3530     2.4060    -1.0980 ca         1 5K2      -0.059500
     14 C14          0.5160     3.7860    -0.8790 ca         1 5K2      -0.179250
     15 C15          1.0020     4.2470     0.3540 ca         1 5K2       0.140100
     16 O01          1.1640     5.5820     0.5730 oh         1 5K2      -0.533600
     17 C16          1.3290     3.3330     1.3650 ca         1 5K2      -0.179250
     18 C17          1.1670     1.9530     1.1490 ca         1 5K2      -0.059500
     19 C18          1.7720    -0.7620    -0.1210 ca         1 5K2      -0.085800
     20 C19          1.8600    -1.7500     0.8800 ca         1 5K2      -0.059500
     21 C20          3.0570    -2.4650     1.0640 ca         1 5K2      -0.179250
     22 C21          4.1710    -2.1900     0.2590 ca         1 5K2       0.140100
     23 O02          5.3270    -2.8870     0.4460 oh         1 5K2      -0.533600
     24 C22          4.0950    -1.1970    -0.7310 ca         1 5K2      -0.179250
     25 C23          2.8990    -0.4810    -0.9170 ca         1 5K2      -0.059500
     26 H1           0.1120    -2.5890    -0.9660 hc         1 5K2       0.054700
     27 H2          -2.0280    -3.7310    -0.3270 hc         1 5K2       0.049700
     28 H3          -1.3990    -2.7470     0.9880 hc         1 5K2       0.049700
     29 H4          -4.2760    -3.6270     0.7990 ha         1 5K2       0.109000
     30 H5          -6.4350    -2.4070     0.9420 ha         1 5K2       0.112000
     31 H6          -6.5570    -0.0040     0.2910 ha         1 5K2       0.112000
     32 H7          -4.5180     1.1770    -0.4980 ha         1 5K2       0.109000
     33 H8          -2.1330     0.4900    -1.8420 hc         1 5K2       0.059700
     34 H9          -1.9310     1.1560    -0.2310 hc         1 5K2       0.059700
     35 H11         -0.0140     2.0530    -2.0600 ha         1 5K2       0.117500
     36 H12          0.2660     4.4860    -1.6720 ha         1 5K2       0.120500
     37 H13          0.8890     6.0640    -0.2350 ho         1 5K2       0.464000
     38 H14          1.7110     3.6910     2.3180 ha         1 5K2       0.120500
     39 H15          1.4240     1.2490     1.9370 ha         1 5K2       0.117500
     40 H16          1.0020    -1.9600     1.5140 ha         1 5K2       0.117500
     41 H17          3.1180    -3.2290     1.8350 ha         1 5K2       0.120500
     42 H18          5.9920    -2.5630    -0.1980 ho         1 5K2       0.464000
     43 H19          4.9560    -0.9730    -1.3570 ha         1 5K2       0.120500
     44 H20          2.8440     0.2900    -1.6830 ha         1 5K2       0.117500
     45 H21         -1.2140    -2.1420    -2.0140 hc         1 5K2       0.054700
@<TRIPOS>BOND
     1     1     2 1   
     2     1    10 1   
     3     1    26 1   
     4     1    45 1   
     5     2     3 1   
     6     2    27 1   
     7     2    28 1   
     8     3     4 ar  
     9     3     8 ar  
    10     4     5 ar  
    11     4    29 1   
    12     5     6 ar  
    13     5    30 1   
    14     6     7 ar  
    15     6    31 1   
    16     7     8 ar  
    17     7    32 1   
    18     8     9 1   
    19     9    10 1   
    20     9    33 1   
    21     9    34 1   
    22    10    11 2   
    23    11    12 1   
    24    11    19 1   
    25    12    13 ar  
    26    12    18 ar  
    27    13    14 ar  
    28    13    35 1   
    29    14    15 ar  
    30    14    36 1   
    31    15    16 1   
    32    15    17 ar  
    33    16    37 1   
    34    17    18 ar  
    35    17    38 1   
    36    18    39 1   
    37    19    20 ar  
    38    19    25 ar  
    39    20    21 ar  
    40    20    40 1   
    41    21    22 ar  
    42    21    41 1   
    43    22    23 1   
    44    22    24 ar  
    45    23    42 1   
    46    24    25 ar  
    47    24    43 1   
    48    25    44 1   
@<TRIPOS>SUBSTRUCTURE
     1 5K2         1 TEMP              0 ****  ****    0 ROOT
