@<TRIPOS>MOLECULE
5K3
   27    27     1     0     0
SMALL
No Charge or Current Charge


@<TRIPOS>ATOM
      1 O2          -3.3350     1.3050     0.4980 oh         1 5K3      -0.678000
      2 C1          -2.9390    -0.0390     0.2750 c3         1 5K3       0.380300
      3 O           -3.6890    -0.5660    -0.8220 os         1 5K3      -0.485000
      4 C           -5.0890    -0.7820    -0.5610 c3         1 5K3       0.152900
      5 C2          -1.4500    -0.0900    -0.1270 c3         1 5K3      -0.106400
      6 C3          -0.4810     0.3380     0.9990 c3         1 5K3      -0.026100
      7 C4           0.9770     0.2130     0.5740 ca         1 5K3      -0.088300
      8 C9           1.6240     1.2880    -0.0660 ca         1 5K3      -0.094500
      9 C8           2.9680     1.1710    -0.4620 ca         1 5K3      -0.130500
     10 C7           3.6720    -0.0200    -0.2210 ca         1 5K3       0.101100
     11 O1           4.9760    -0.1240    -0.6090 oh         1 5K3      -0.564100
     12 C6           3.0310    -1.0970     0.4150 ca         1 5K3      -0.130500
     13 C5           1.6870    -0.9800     0.8120 ca         1 5K3      -0.094500
     14 H2          -3.3670     1.7070    -0.3940 ho         1 5K3       0.448000
     15 H1          -3.0980    -0.6290     1.1880 h2         1 5K3       0.060700
     16 H21C        -1.2070    -1.1180    -0.4240 hc         1 5K3       0.061200
     17 H22C        -1.2860     0.5400    -1.0090 hc         1 5K3       0.061200
     18 HC1         -5.2270    -1.4710     0.2830 h1         1 5K3       0.032367
     19 HC2         -5.6010     0.1600    -0.3280 h1         1 5K3       0.032367
     20 HC3         -5.5760    -1.2230    -1.4410 h1         1 5K3       0.032367
     21 H31C        -0.6960     1.3730     1.2940 hc         1 5K3       0.052200
     22 H32C        -0.6680    -0.2770     1.8880 hc         1 5K3       0.052200
     23 H9           1.0860     2.2140    -0.2590 ha         1 5K3       0.112500
     24 H5           1.1970    -1.8190     1.3020 ha         1 5K3       0.112500
     25 H8           3.4630     2.0030    -0.9550 ha         1 5K3       0.123000
     26 HA           5.3060    -1.0160    -0.3640 ho         1 5K3       0.459000
     27 H6           3.5670    -2.0240     0.6050 ha         1 5K3       0.123000
@<TRIPOS>BOND
     1     1     2 1   
     2     1    14 1   
     3     2     3 1   
     4     2     5 1   
     5     2    15 1   
     6     3     4 1   
     7     4    18 1   
     8     4    19 1   
     9     4    20 1   
    10     5     6 1   
    11     5    16 1   
    12     5    17 1   
    13     6     7 1   
    14     6    21 1   
    15     6    22 1   
    16     7     8 ar  
    17     7    13 ar  
    18     8     9 ar  
    19     8    23 1   
    20     9    10 ar  
    21     9    25 1   
    22    10    11 1   
    23    10    12 ar  
    24    11    26 1   
    25    12    13 ar  
    26    12    27 1   
    27    13    24 1   
@<TRIPOS>SUBSTRUCTURE
     1 5K3         1 TEMP              0 ****  ****    0 ROOT
