@<TRIPOS>MOLECULE
5K3
   27    27     1     0     0
SMALL
abcg2


@<TRIPOS>ATOM
      1 O2          -3.3090     1.2100     0.7100 oh         1 5K3      -0.678000
      2 C1          -2.9210    -0.0470     0.2370 c3         1 5K3       0.380300
      3 O           -3.6780    -0.4550    -0.8650 os         1 5K3      -0.485000
      4 C           -5.0370    -0.7020    -0.5810 c3         1 5K3       0.152900
      5 C2          -1.4580    -0.0970    -0.1760 c3         1 5K3      -0.106400
      6 C3          -0.5110     0.2950     0.9590 c3         1 5K3      -0.026100
      7 C4           0.9290     0.1450     0.5570 ca         1 5K3      -0.088300
      8 C9           1.5850     1.1570    -0.1400 ca         1 5K3      -0.094500
      9 C8           2.9030     1.0130    -0.5490 ca         1 5K3      -0.130500
     10 C7           3.5940    -0.1600    -0.2680 ca         1 5K3       0.101100
     11 O1           4.8810    -0.3260    -0.7070 oh         1 5K3      -0.564100
     12 C6           2.9540    -1.1800     0.4260 ca         1 5K3      -0.130500
     13 C5           1.6350    -1.0240     0.8280 ca         1 5K3      -0.094500
     14 H2          -3.0430     1.8810     0.0690 ho         1 5K3       0.448000
     15 H1          -3.0930    -0.7300     1.0810 h2         1 5K3       0.060700
     16 H21C        -1.2240    -1.1110    -0.5090 hc         1 5K3       0.061200
     17 H22C        -1.2990     0.5640    -1.0370 hc         1 5K3       0.061200
     18 HC1         -5.1580    -1.4480     0.2130 h1         1 5K3       0.032367
     19 HC2         -5.5770     0.2010    -0.2840 h1         1 5K3       0.032367
     20 HC3         -5.4970    -1.0910    -1.4880 h1         1 5K3       0.032367
     21 H31C        -0.7040     1.3260     1.2620 hc         1 5K3       0.052200
     22 H32C        -0.7160    -0.3320     1.8320 hc         1 5K3       0.052200
     23 H9           1.0600     2.0780    -0.3670 ha         1 5K3       0.112500
     24 H5           1.1480    -1.8280     1.3680 ha         1 5K3       0.112500
     25 H8           3.3950     1.8110    -1.0920 ha         1 5K3       0.123000
     26 HA           5.4980    -0.0130    -0.0360 ho         1 5K3       0.459000
     27 H6           3.4860    -2.0970     0.6480 ha         1 5K3       0.123000
@<TRIPOS>BOND
     1     1     2 1   
     2     1    14 1   
     3     2     3 1   
     4     2     5 1   
     5     2    15 1   
     6     3     4 1   
     7     4    18 1   
     8     4    19 1   
     9     4    20 1   
    10     5     6 1   
    11     5    16 1   
    12     5    17 1   
    13     6     7 1   
    14     6    21 1   
    15     6    22 1   
    16     7     8 ar  
    17     7    13 ar  
    18     8     9 ar  
    19     8    23 1   
    20     9    10 ar  
    21     9    25 1   
    22    10    11 1   
    23    10    12 ar  
    24    11    26 1   
    25    12    13 ar  
    26    12    27 1   
    27    13    24 1   
@<TRIPOS>SUBSTRUCTURE
     1 5K3         1 TEMP              0 ****  ****    0 ROOT
