@<TRIPOS>MOLECULE
5K4
   47    49     1     0     0
SMALL
bcc


@<TRIPOS>ATOM
      1 O01          5.7190    -0.6780     0.8540 oh         1 5K4      -0.495600
      2 C02          4.4180    -0.5080     0.5400 ca         1 5K4       0.138100
      3 C03          3.9880     0.4130    -0.4120 ca         1 5K4      -0.197000
      4 C04          2.6360     0.5480    -0.6860 ca         1 5K4      -0.078500
      5 C05          1.6770    -0.2340    -0.0420 ca         1 5K4      -0.082800
      6 C06          0.2320    -0.0510    -0.3270 ce         1 5K4      -0.011400
      7 C07         -0.2330     1.3550    -0.2230 ca         1 5K4      -0.082800
      8 C08          0.0330     2.1140     0.9160 ca         1 5K4      -0.078500
      9 C09         -0.3640     3.4380     1.0170 ca         1 5K4      -0.197000
     10 C10         -1.0310     4.0470    -0.0440 ca         1 5K4       0.138100
     11 O11         -1.4340     5.3340    -0.0080 oh         1 5K4      -0.495600
     12 C12         -1.2920     3.3120    -1.1970 ca         1 5K4      -0.197000
     13 C13         -0.8930     1.9880    -1.2770 ca         1 5K4      -0.078500
     14 C14         -0.5850    -1.0670    -0.6640 c2         1 5K4      -0.081400
     15 C15         -0.1140    -2.4660    -0.9540 c6         1 5K4      -0.045200
     16 C16         -0.8040    -3.4890    -0.0520 c6         1 5K4      -0.070400
     17 C17         -2.3200    -3.3640    -0.1340 c6         1 5K4      -0.072400
     18 C18         -2.7880    -1.9430     0.1660 c6         1 5K4      -0.057700
     19 C19         -4.3030    -1.7820     0.0490 c3         1 5K4      -0.072400
     20 C20         -5.1050    -2.6110     1.0430 c3         1 5K4      -0.088100
     21 C21         -2.0800    -0.9400    -0.7620 c6         1 5K4      -0.042200
     22 C22          2.1290    -1.1410     0.9180 ca         1 5K4      -0.078500
     23 C23          3.4760    -1.2850     1.2090 ca         1 5K4      -0.197000
     24 H1           6.2660    -0.0590     0.3570 ho         1 5K4       0.425000
     25 H2           4.7070     1.0300    -0.9390 ha         1 5K4       0.138250
     26 H3           2.3250     1.2790    -1.4230 ha         1 5K4       0.135250
     27 H5           0.5590     1.6610     1.7480 ha         1 5K4       0.135250
     28 H6          -0.1480     3.9980     1.9200 ha         1 5K4       0.138250
     29 H7          -1.1750     5.7420     0.8260 ho         1 5K4       0.425000
     30 H8          -1.7970     3.7810    -2.0320 ha         1 5K4       0.138250
     31 H9          -1.0910     1.4370    -2.1890 ha         1 5K4       0.135250
     32 H11         -0.3820    -2.6930    -1.9940 hc         1 5K4       0.051200
     33 H12          0.9680    -2.5610    -0.8860 hc         1 5K4       0.051200
     34 H13         -0.4900    -4.4970    -0.3310 hc         1 5K4       0.040200
     35 H14         -0.4800    -3.3370     0.9830 hc         1 5K4       0.040200
     36 H15         -2.6550    -3.6420    -1.1420 hc         1 5K4       0.039700
     37 H16         -2.7840    -4.0760     0.5530 hc         1 5K4       0.039700
     38 H17         -2.4970    -1.6980     1.1970 hc         1 5K4       0.049700
     39 H18         -4.5530    -0.7250     0.1880 hc         1 5K4       0.038200
     40 H19         -4.6110    -2.0320    -0.9730 hc         1 5K4       0.038200
     41 H20         -4.9620    -3.6820     0.8970 hc         1 5K4       0.031700
     42 H21         -4.8190    -2.3770     2.0710 hc         1 5K4       0.031700
     43 H22         -6.1730    -2.4110     0.9460 hc         1 5K4       0.031700
     44 H23         -2.4180     0.0670    -0.5150 hc         1 5K4       0.050200
     45 H24         -2.4020    -1.1380    -1.7930 hc         1 5K4       0.050200
     46 H25          1.4120    -1.7400     1.4660 ha         1 5K4       0.135250
     47 H26          3.7980    -1.9920     1.9640 ha         1 5K4       0.138250
@<TRIPOS>BOND
     1     1     2 1   
     2     1    24 1   
     3     2     3 ar  
     4     2    23 ar  
     5     3     4 ar  
     6     3    25 1   
     7     4     5 ar  
     8     4    26 1   
     9     5     6 1   
    10     5    22 ar  
    11     6     7 1   
    12     6    14 2   
    13     7     8 ar  
    14     7    13 ar  
    15     8     9 ar  
    16     8    27 1   
    17     9    10 ar  
    18     9    28 1   
    19    10    11 1   
    20    10    12 ar  
    21    11    29 1   
    22    12    13 ar  
    23    12    30 1   
    24    13    31 1   
    25    14    15 1   
    26    14    21 1   
    27    15    16 1   
    28    15    32 1   
    29    15    33 1   
    30    16    17 1   
    31    16    34 1   
    32    16    35 1   
    33    17    18 1   
    34    17    36 1   
    35    17    37 1   
    36    18    19 1   
    37    18    21 1   
    38    18    38 1   
    39    19    20 1   
    40    19    39 1   
    41    19    40 1   
    42    20    41 1   
    43    20    42 1   
    44    20    43 1   
    45    21    44 1   
    46    21    45 1   
    47    22    23 ar  
    48    22    46 1   
    49    23    47 1   
@<TRIPOS>SUBSTRUCTURE
     1 5K4         1 TEMP              0 ****  ****    0 ROOT
