@<TRIPOS>MOLECULE
5K4
   47    49     1     0     0
SMALL
No Charge or Current Charge


@<TRIPOS>ATOM
      1 O01          5.8320    -0.6030     0.6620 oh         1 5K4      -0.534600
      2 C02          4.4980    -0.4690     0.4210 ca         1 5K4       0.138100
      3 C03          4.0480     0.3240    -0.6470 ca         1 5K4      -0.179000
      4 C04          2.6680     0.4570    -0.8880 ca         1 5K4      -0.060500
      5 C05          1.7360    -0.2070    -0.0690 ca         1 5K4      -0.082800
      6 C06          0.2750    -0.0430    -0.3170 ce         1 5K4      -0.011400
      7 C07         -0.2010     1.3630    -0.1830 ca         1 5K4      -0.082800
      8 C08         -0.0540     2.0440     1.0410 ca         1 5K4      -0.060500
      9 C09         -0.4840     3.3770     1.1690 ca         1 5K4      -0.179000
     10 C10         -1.0550     4.0370     0.0690 ca         1 5K4       0.138100
     11 O11         -1.4740     5.3280     0.1840 oh         1 5K4      -0.534600
     12 C12         -1.1930     3.3700    -1.1560 ca         1 5K4      -0.179000
     13 C13         -0.7640     2.0370    -1.2860 ca         1 5K4      -0.060500
     14 C14         -0.5490    -1.0830    -0.6320 c2         1 5K4      -0.081400
     15 C15         -0.0690    -2.5220    -0.8440 c6         1 5K4      -0.045200
     16 C16         -0.8040    -3.4950     0.1030 c6         1 5K4      -0.070400
     17 C17         -2.3380    -3.3870    -0.0690 c6         1 5K4      -0.072400
     18 C18         -2.8360    -1.9260     0.1340 c6         1 5K4      -0.057700
     19 C19         -4.3770    -1.7830    -0.0610 c3         1 5K4      -0.072400
     20 C20         -5.2490    -2.5860     0.9270 c3         1 5K4      -0.088100
     21 C21         -2.0670    -0.9530    -0.8040 c6         1 5K4      -0.042200
     22 C22          2.1960    -0.9900     1.0090 ca         1 5K4      -0.060500
     23 C23          3.5740    -1.1230     1.2490 ca         1 5K4      -0.179000
     24 H1           6.3220    -0.0800    -0.0080 ho         1 5K4       0.464000
     25 H2           4.7560     0.8390    -1.2900 ha         1 5K4       0.120250
     26 H3           2.3220     1.0750    -1.7140 ha         1 5K4       0.117250
     27 H5           0.3910     1.5350     1.8940 ha         1 5K4       0.117250
     28 H6          -0.3680     3.8880     2.1220 ha         1 5K4       0.120250
     29 H7          -1.2990     5.6300     1.1010 ho         1 5K4       0.464000
     30 H8          -1.6300     3.8830    -2.0090 ha         1 5K4       0.120250
     31 H9          -0.8660     1.5260    -2.2410 ha         1 5K4       0.117250
     32 H11         -0.2660    -2.8120    -1.8860 hc         1 5K4       0.051200
     33 H12          1.0150    -2.6260    -0.7140 hc         1 5K4       0.051200
     34 H13         -0.4770    -4.5250    -0.0930 hc         1 5K4       0.040200
     35 H14         -0.5310    -3.2720     1.1440 hc         1 5K4       0.040200
     36 H15         -2.6220    -3.7410    -1.0700 hc         1 5K4       0.039700
     37 H16         -2.8220    -4.0610     0.6500 hc         1 5K4       0.039700
     38 H17         -2.6250    -1.6300     1.1720 hc         1 5K4       0.049700
     39 H18         -4.6550    -0.7260     0.0360 hc         1 5K4       0.038200
     40 H19         -4.6510    -2.0740    -1.0830 hc         1 5K4       0.038200
     41 H20         -5.1270    -3.6650     0.7770 hc         1 5K4       0.031700
     42 H21         -4.9840    -2.3450     1.9630 hc         1 5K4       0.031700
     43 H22         -6.3080    -2.3450     0.7800 hc         1 5K4       0.031700
     44 H23         -2.4100     0.0680    -0.6020 hc         1 5K4       0.050200
     45 H24         -2.3280    -1.1600    -1.8510 hc         1 5K4       0.050200
     46 H25          1.4820    -1.4920     1.6590 ha         1 5K4       0.117250
     47 H26          3.9240    -1.7310     2.0790 ha         1 5K4       0.120250
@<TRIPOS>BOND
     1     1     2 1   
     2     1    24 1   
     3     2     3 ar  
     4     2    23 ar  
     5     3     4 ar  
     6     3    25 1   
     7     4     5 ar  
     8     4    26 1   
     9     5     6 1   
    10     5    22 ar  
    11     6     7 1   
    12     6    14 2   
    13     7     8 ar  
    14     7    13 ar  
    15     8     9 ar  
    16     8    27 1   
    17     9    10 ar  
    18     9    28 1   
    19    10    11 1   
    20    10    12 ar  
    21    11    29 1   
    22    12    13 ar  
    23    12    30 1   
    24    13    31 1   
    25    14    15 1   
    26    14    21 1   
    27    15    16 1   
    28    15    32 1   
    29    15    33 1   
    30    16    17 1   
    31    16    34 1   
    32    16    35 1   
    33    17    18 1   
    34    17    36 1   
    35    17    37 1   
    36    18    19 1   
    37    18    21 1   
    38    18    38 1   
    39    19    20 1   
    40    19    39 1   
    41    19    40 1   
    42    20    41 1   
    43    20    42 1   
    44    20    43 1   
    45    21    44 1   
    46    21    45 1   
    47    22    23 ar  
    48    22    46 1   
    49    23    47 1   
@<TRIPOS>SUBSTRUCTURE
     1 5K4         1 TEMP              0 ****  ****    0 ROOT
