@<TRIPOS>MOLECULE
5K5
   51    54     1     0     0
SMALL
No Charge or Current Charge


@<TRIPOS>ATOM
      1 C01          1.8180    -0.3450    -0.8690 c6         1 5K5      -0.040200
      2 C02          2.9520     0.2490     0.0090 c6         1 5K5      -0.055700
      3 C03          4.2660    -0.5660    -0.1350 c6         1 5K5      -0.071400
      4 C04          5.3960     0.0280     0.7430 c6         1 5K5      -0.073400
      5 C05          5.6320     1.5230     0.4170 c6         1 5K5      -0.073400
      6 C06          4.3230     2.3410     0.5530 c6         1 5K5      -0.069400
      7 C07          3.1950     1.7500    -0.3370 c6         1 5K5      -0.060700
      8 C08          1.8800     2.5610    -0.1940 c6         1 5K5      -0.067400
      9 C09          0.7600     1.9580    -1.0720 c6         1 5K5      -0.044200
     10 C10          0.5310     0.4790    -0.7430 c2         1 5K5      -0.082400
     11 C11         -0.6730    -0.0410    -0.3700 ce         1 5K5      -0.009400
     12 C12         -1.8930     0.7920    -0.1680 ca         1 5K5      -0.083300
     13 C13         -1.9280     1.7760     0.8400 ca         1 5K5      -0.060500
     14 C14         -3.0890     2.5440     1.0410 ca         1 5K5      -0.178750
     15 C15         -4.2220     2.3250     0.2410 ca         1 5K5       0.139100
     16 O01         -5.3500     3.0640     0.4290 oh         1 5K5      -0.534100
     17 C16         -4.1970     1.3370    -0.7550 ca         1 5K5      -0.178750
     18 C17         -3.0370     0.5680    -0.9570 ca         1 5K5      -0.060500
     19 C18         -0.8920    -1.4950    -0.1220 ca         1 5K5      -0.083300
     20 C19         -1.3190    -1.9370     1.1440 ca         1 5K5      -0.060500
     21 C20         -1.5450    -3.3050     1.3770 ca         1 5K5      -0.178750
     22 C21         -1.3520    -4.2350     0.3460 ca         1 5K5       0.139100
     23 O02         -1.5740    -5.5590     0.5820 oh         1 5K5      -0.534100
     24 C22         -0.9380    -3.8020    -0.9230 ca         1 5K5      -0.178750
     25 C23         -0.7120    -2.4340    -1.1580 ca         1 5K5      -0.060500
     26 H1           2.1300    -0.3670    -1.9220 hc         1 5K5       0.049700
     27 H2           1.6620    -1.3900    -0.5750 hc         1 5K5       0.049700
     28 H3           2.6270     0.1850     1.0580 hc         1 5K5       0.050700
     29 H4           4.0930    -1.6130     0.1510 hc         1 5K5       0.038700
     30 H5           4.5860    -0.5790    -1.1860 hc         1 5K5       0.038700
     31 H6           5.1350    -0.0820     1.8050 hc         1 5K5       0.038700
     32 H7           6.3240    -0.5380     0.5890 hc         1 5K5       0.038700
     33 H8           6.3990     1.9340     1.0870 hc         1 5K5       0.038200
     34 H9           6.0250     1.6220    -0.6040 hc         1 5K5       0.038200
     35 H10          4.0050     2.3530     1.6050 hc         1 5K5       0.038200
     36 H11          4.5140     3.3860     0.2730 hc         1 5K5       0.038200
     37 H12          3.5220     1.8160    -1.3850 hc         1 5K5       0.044700
     38 H13          1.5560     2.5730     0.8560 hc         1 5K5       0.039700
     39 H14          2.0500     3.6080    -0.4810 hc         1 5K5       0.039700
     40 H15         -0.1530     2.5570    -0.9670 hc         1 5K5       0.051200
     41 H16          1.0430     2.0460    -2.1300 hc         1 5K5       0.051200
     42 H19         -1.0550     1.9420     1.4670 ha         1 5K5       0.117250
     43 H20         -3.1010     3.3030     1.8190 ha         1 5K5       0.120250
     44 H21         -5.1870     3.6970     1.1600 ho         1 5K5       0.463000
     45 H22         -5.0760     1.1640    -1.3710 ha         1 5K5       0.120250
     46 H23         -3.0240    -0.1990    -1.7290 ha         1 5K5       0.117250
     47 H24         -1.4730    -1.2190     1.9470 ha         1 5K5       0.117250
     48 H25         -1.8700    -3.6410     2.3590 ha         1 5K5       0.120250
     49 H26         -1.3930    -6.0550    -0.2450 ho         1 5K5       0.463000
     50 H27         -0.7910    -4.5150    -1.7310 ha         1 5K5       0.120250
     51 H28         -0.3980    -2.0990    -2.1450 ha         1 5K5       0.117250
@<TRIPOS>BOND
     1     1     2 1   
     2     1    10 1   
     3     1    26 1   
     4     1    27 1   
     5     2     3 1   
     6     2     7 1   
     7     2    28 1   
     8     3     4 1   
     9     3    29 1   
    10     3    30 1   
    11     4     5 1   
    12     4    31 1   
    13     4    32 1   
    14     5     6 1   
    15     5    33 1   
    16     5    34 1   
    17     6     7 1   
    18     6    35 1   
    19     6    36 1   
    20     7     8 1   
    21     7    37 1   
    22     8     9 1   
    23     8    38 1   
    24     8    39 1   
    25     9    10 1   
    26     9    40 1   
    27     9    41 1   
    28    10    11 2   
    29    11    12 1   
    30    11    19 1   
    31    12    13 ar  
    32    12    18 ar  
    33    13    14 ar  
    34    13    42 1   
    35    14    15 ar  
    36    14    43 1   
    37    15    16 1   
    38    15    17 ar  
    39    16    44 1   
    40    17    18 ar  
    41    17    45 1   
    42    18    46 1   
    43    19    20 ar  
    44    19    25 ar  
    45    20    21 ar  
    46    20    47 1   
    47    21    22 ar  
    48    21    48 1   
    49    22    23 1   
    50    22    24 ar  
    51    23    49 1   
    52    24    25 ar  
    53    24    50 1   
    54    25    51 1   
@<TRIPOS>SUBSTRUCTURE
     1 5K5         1 TEMP              0 ****  ****    0 ROOT
