@<TRIPOS>MOLECULE
5K5
   51    54     1     0     0
SMALL
bcc


@<TRIPOS>ATOM
      1 C01          1.8170    -0.3460    -0.8760 c6         1 5K5      -0.040200
      2 C02          2.9180     0.2630     0.0030 c6         1 5K5      -0.055700
      3 C03          4.2170    -0.5300    -0.1080 c6         1 5K5      -0.071400
      4 C04          5.3160     0.0610     0.7700 c6         1 5K5      -0.073400
      5 C05          5.5400     1.5370     0.4610 c6         1 5K5      -0.073400
      6 C06          4.2400     2.3270     0.5690 c6         1 5K5      -0.069400
      7 C07          3.1520     1.7390    -0.3250 c6         1 5K5      -0.060700
      8 C08          1.8490     2.5260    -0.2470 c6         1 5K5      -0.067400
      9 C09          0.7690     1.9000    -1.1300 c6         1 5K5      -0.044200
     10 C10          0.5480     0.4540    -0.7800 c2         1 5K5      -0.082400
     11 C11         -0.6340    -0.0520    -0.3850 ce         1 5K5      -0.009400
     12 C12         -1.8290     0.7930    -0.1370 ca         1 5K5      -0.083300
     13 C13         -1.8060     1.8560     0.7640 ca         1 5K5      -0.078500
     14 C14         -2.9320     2.6320     1.0030 ca         1 5K5      -0.196750
     15 C15         -4.1220     2.3520     0.3390 ca         1 5K5       0.139100
     16 O01         -5.2490     3.0700     0.5250 oh         1 5K5      -0.495100
     17 C16         -4.1700     1.2840    -0.5550 ca         1 5K5      -0.196750
     18 C17         -3.0390     0.5160    -0.7750 ca         1 5K5      -0.078500
     19 C18         -0.8600    -1.5030    -0.1660 ca         1 5K5      -0.083300
     20 C19         -1.3860    -1.9640     1.0430 ca         1 5K5      -0.078500
     21 C20         -1.6230    -3.3090     1.2670 ca         1 5K5      -0.196750
     22 C21         -1.3510    -4.2390     0.2650 ca         1 5K5       0.139100
     23 O02         -1.6030    -5.5390     0.5250 oh         1 5K5      -0.495100
     24 C22         -0.8460    -3.7990    -0.9540 ca         1 5K5      -0.196750
     25 C23         -0.6090    -2.4470    -1.1590 ca         1 5K5      -0.078500
     26 H1           2.1660    -0.3550    -1.9170 hc         1 5K5       0.049700
     27 H2           1.6670    -1.3860    -0.5860 hc         1 5K5       0.049700
     28 H3           2.5760     0.2040     1.0470 hc         1 5K5       0.050700
     29 H4           4.0390    -1.5750     0.1640 hc         1 5K5       0.038700
     30 H5           4.5460    -0.5330    -1.1540 hc         1 5K5       0.038700
     31 H6           5.0340    -0.0510     1.8220 hc         1 5K5       0.038700
     32 H7           6.2450    -0.5010     0.6380 hc         1 5K5       0.038700
     33 H8           6.2960     1.9550     1.1310 hc         1 5K5       0.038200
     34 H9           5.9360     1.6390    -0.5550 hc         1 5K5       0.038200
     35 H10          3.8920     2.3230     1.6090 hc         1 5K5       0.038200
     36 H11          4.4100     3.3750     0.3030 hc         1 5K5       0.038200
     37 H12          3.5070     1.7920    -1.3660 hc         1 5K5       0.044700
     38 H13          1.5000     2.5600     0.7920 hc         1 5K5       0.039700
     39 H14          2.0210     3.5620    -0.5530 hc         1 5K5       0.039700
     40 H15         -0.1500     2.4830    -1.0870 hc         1 5K5       0.051200
     41 H16          1.1120     1.9430    -2.1720 hc         1 5K5       0.051200
     42 H19         -0.8910     2.0820     1.2990 ha         1 5K5       0.135250
     43 H20         -2.8800     3.4490     1.7130 ha         1 5K5       0.138250
     44 H21         -5.0930     3.7820     1.1550 ho         1 5K5       0.424000
     45 H22         -5.0940     1.0580    -1.0740 ha         1 5K5       0.138250
     46 H23         -3.0980    -0.3130    -1.4700 ha         1 5K5       0.135250
     47 H24         -1.6090    -1.2560     1.8320 ha         1 5K5       0.135250
     48 H25         -2.0200    -3.6430     2.2170 ha         1 5K5       0.138250
     49 H26         -1.3630    -6.0850    -0.2310 ho         1 5K5       0.424000
     50 H27         -0.6450    -4.5050    -1.7510 ha         1 5K5       0.138250
     51 H28         -0.2290    -2.1220    -2.1200 ha         1 5K5       0.135250
@<TRIPOS>BOND
     1     1     2 1   
     2     1    10 1   
     3     1    26 1   
     4     1    27 1   
     5     2     3 1   
     6     2     7 1   
     7     2    28 1   
     8     3     4 1   
     9     3    29 1   
    10     3    30 1   
    11     4     5 1   
    12     4    31 1   
    13     4    32 1   
    14     5     6 1   
    15     5    33 1   
    16     5    34 1   
    17     6     7 1   
    18     6    35 1   
    19     6    36 1   
    20     7     8 1   
    21     7    37 1   
    22     8     9 1   
    23     8    38 1   
    24     8    39 1   
    25     9    10 1   
    26     9    40 1   
    27     9    41 1   
    28    10    11 2   
    29    11    12 1   
    30    11    19 1   
    31    12    13 ar  
    32    12    18 ar  
    33    13    14 ar  
    34    13    42 1   
    35    14    15 ar  
    36    14    43 1   
    37    15    16 1   
    38    15    17 ar  
    39    16    44 1   
    40    17    18 ar  
    41    17    45 1   
    42    18    46 1   
    43    19    20 ar  
    44    19    25 ar  
    45    20    21 ar  
    46    20    47 1   
    47    21    22 ar  
    48    21    48 1   
    49    22    23 1   
    50    22    24 ar  
    51    23    49 1   
    52    24    25 ar  
    53    24    50 1   
    54    25    51 1   
@<TRIPOS>SUBSTRUCTURE
     1 5K5         1 TEMP              0 ****  ****    0 ROOT
