@<TRIPOS>MOLECULE
5K7
   50    52     1     0     0
SMALL
abcg2


@<TRIPOS>ATOM
      1 O01          3.0310     5.3420     0.3640 oh         1 5K7      -0.534100
      2 C02          2.5920     4.0760     0.2100 ca         1 5K7       0.139100
      3 C03          2.6680     3.1230     1.2230 ca         1 5K7      -0.179000
      4 C04          2.2020     1.8370     1.0010 ca         1 5K7      -0.060000
      5 C05          1.6340     1.4660    -0.2170 ca         1 5K7      -0.084300
      6 C06          1.1530     0.0800    -0.4430 ce         1 5K7      -0.007400
      7 C07          2.1550    -0.9730    -0.1410 ca         1 5K7      -0.084300
      8 C08          1.8870    -2.0050     0.7570 ca         1 5K7      -0.060000
      9 C09          2.8370    -2.9680     1.0630 ca         1 5K7      -0.179000
     10 C10          4.0960    -2.9150     0.4740 ca         1 5K7       0.139100
     11 O11          5.0640    -3.8170     0.7340 oh         1 5K7      -0.534100
     12 C12          4.3880    -1.8840    -0.4180 ca         1 5K7      -0.179000
     13 C13          3.4300    -0.9280    -0.7070 ca         1 5K7      -0.060000
     14 C14         -0.0860    -0.1930    -0.8900 c2         1 5K7      -0.087400
     15 C15         -0.5520    -1.5650    -1.2910 c6         1 5K7      -0.042200
     16 C16         -1.7700    -2.0130    -0.4820 c6         1 5K7      -0.069900
     17 C17         -2.9050    -0.9950    -0.5690 c6         1 5K7      -0.054700
     18 C18         -4.0790    -1.4420     0.2940 c3         1 5K7      -0.135400
     19 C19         -5.3440    -0.6560     0.0690 c          1 5K7       0.590100
     20 O20         -6.1610    -0.7320     1.1130 os         1 5K7      -0.447100
     21 C21         -7.4290    -0.0850     1.0080 c3         1 5K7       0.151900
     22 O22         -5.6180    -0.0550    -0.9400 o          1 5K7      -0.488000
     23 C23         -2.3980     0.3890    -0.1730 c6         1 5K7      -0.069900
     24 C24         -1.1850     0.8280    -1.0010 c6         1 5K7      -0.042200
     25 C25          1.5840     2.4310    -1.2240 ca         1 5K7      -0.060000
     26 C26          2.0510     3.7190    -1.0230 ca         1 5K7      -0.179000
     27 H1           3.3790     5.4700     1.2540 ho         1 5K7       0.464000
     28 H2           3.0920     3.3840     2.1870 ha         1 5K7       0.120750
     29 H3           2.2760     1.1100     1.8010 ha         1 5K7       0.117250
     30 H5           0.9190    -2.0550     1.2410 ha         1 5K7       0.117250
     31 H6           2.5970    -3.7540     1.7710 ha         1 5K7       0.120750
     32 H7           4.7440    -4.4860     1.3500 ho         1 5K7       0.464000
     33 H8           5.3670    -1.8350    -0.8800 ha         1 5K7       0.120750
     34 H9           3.6810    -0.1300    -1.3950 ha         1 5K7       0.117250
     35 H11         -0.8440    -1.5190    -2.3480 hc         1 5K7       0.053700
     36 H12          0.2420    -2.3060    -1.2220 hc         1 5K7       0.053700
     37 H13         -2.1120    -2.9860    -0.8440 hc         1 5K7       0.042950
     38 H14         -1.4790    -2.1530     0.5650 hc         1 5K7       0.042950
     39 H15         -3.2380    -0.9550    -1.6130 hc         1 5K7       0.067700
     40 H16         -4.3210    -2.4890     0.0740 hc         1 5K7       0.071200
     41 H17         -3.8120    -1.4140     1.3540 hc         1 5K7       0.071200
     42 H18         -7.3190     0.9890     0.8540 h1         1 5K7       0.047700
     43 H19         -8.0260    -0.5030     0.1970 h1         1 5K7       0.047700
     44 H20         -7.9340    -0.2620     1.9530 h1         1 5K7       0.047700
     45 H21         -3.1900     1.1350    -0.2830 hc         1 5K7       0.042950
     46 H22         -2.1210     0.3810     0.8870 hc         1 5K7       0.042950
     47 H23         -0.8630     1.8130    -0.6680 hc         1 5K7       0.053700
     48 H24         -1.4900     0.9330    -2.0490 hc         1 5K7       0.053700
     49 H25          1.1790     2.1660    -2.1940 ha         1 5K7       0.117250
     50 H26          2.0040     4.4490    -1.8220 ha         1 5K7       0.120750
@<TRIPOS>BOND
     1     1     2 1   
     2     1    27 1   
     3     2     3 ar  
     4     2    26 ar  
     5     3     4 ar  
     6     3    28 1   
     7     4     5 ar  
     8     4    29 1   
     9     5     6 1   
    10     5    25 ar  
    11     6     7 1   
    12     6    14 2   
    13     7     8 ar  
    14     7    13 ar  
    15     8     9 ar  
    16     8    30 1   
    17     9    10 ar  
    18     9    31 1   
    19    10    11 1   
    20    10    12 ar  
    21    11    32 1   
    22    12    13 ar  
    23    12    33 1   
    24    13    34 1   
    25    14    15 1   
    26    14    24 1   
    27    15    16 1   
    28    15    35 1   
    29    15    36 1   
    30    16    17 1   
    31    16    37 1   
    32    16    38 1   
    33    17    18 1   
    34    17    23 1   
    35    17    39 1   
    36    18    19 1   
    37    18    40 1   
    38    18    41 1   
    39    19    20 1   
    40    19    22 2   
    41    20    21 1   
    42    21    42 1   
    43    21    43 1   
    44    21    44 1   
    45    23    24 1   
    46    23    45 1   
    47    23    46 1   
    48    24    47 1   
    49    24    48 1   
    50    25    26 ar  
    51    25    49 1   
    52    26    50 1   
@<TRIPOS>SUBSTRUCTURE
     1 5K7         1 TEMP              0 ****  ****    0 ROOT
