@<TRIPOS>MOLECULE
5K7
   50    52     1     0     0
SMALL
No Charge or Current Charge


@<TRIPOS>ATOM
      1 O01          2.6540     5.3480     0.8290 oh         1 5K7      -0.534100
      2 C02          2.2820     4.0700     0.5380 ca         1 5K7       0.139100
      3 C03          2.3080     3.0800     1.5330 ca         1 5K7      -0.179000
      4 C04          1.9230     1.7630     1.2240 ca         1 5K7      -0.060000
      5 C05          1.5030     1.4330    -0.0790 ca         1 5K7      -0.084300
      6 C06          1.1170     0.0300    -0.4050 ce         1 5K7      -0.007400
      7 C07          2.2100    -0.9600    -0.1860 ca         1 5K7      -0.084300
      8 C08          2.0680    -1.9830     0.7730 ca         1 5K7      -0.060000
      9 C09          3.1110    -2.9020     0.9910 ca         1 5K7      -0.179000
     10 C10          4.3030    -2.7940     0.2570 ca         1 5K7       0.139100
     11 O11          5.3180    -3.6790     0.4630 oh         1 5K7      -0.534100
     12 C12          4.4560    -1.7700    -0.6880 ca         1 5K7      -0.179000
     13 C13          3.4140    -0.8510    -0.9080 ca         1 5K7      -0.060000
     14 C14         -0.1210    -0.3160    -0.8590 c2         1 5K7      -0.087400
     15 C15         -0.5170    -1.7380    -1.2700 c6         1 5K7      -0.042200
     16 C16         -1.7480    -2.2280    -0.4720 c6         1 5K7      -0.069900
     17 C17         -2.9490    -1.2570    -0.6340 c6         1 5K7      -0.054700
     18 C18         -4.1890    -1.7650     0.1640 c3         1 5K7      -0.135400
     19 C19         -5.4480    -0.9220    -0.0650 c          1 5K7       0.590100
     20 O20         -5.6820    -0.0570     0.9730 os         1 5K7      -0.447100
     21 C21         -6.8310     0.8070     0.8880 c3         1 5K7       0.151900
     22 O22         -6.1550    -1.0190    -1.0590 o          1 5K7      -0.488000
     23 C23         -2.5340     0.1860    -0.2290 c6         1 5K7      -0.069900
     24 C24         -1.2850     0.6690    -1.0080 c6         1 5K7      -0.042200
     25 C25          1.4930     2.4290    -1.0760 ca         1 5K7      -0.060000
     26 C26          1.8770     3.7450    -0.7650 ca         1 5K7      -0.179000
     27 H1           2.9050     5.3890     1.7770 ho         1 5K7       0.464000
     28 H2           2.6250     3.3210     2.5450 ha         1 5K7       0.120750
     29 H3           1.9470     0.9970     1.9960 ha         1 5K7       0.117250
     30 H5           1.1480    -2.0630     1.3480 ha         1 5K7       0.117250
     31 H6           2.9850    -3.6890     1.7310 ha         1 5K7       0.120750
     32 H7           5.0380    -4.3170     1.1530 ho         1 5K7       0.464000
     33 H8           5.3820    -1.6840    -1.2520 ha         1 5K7       0.120750
     34 H9           3.5390    -0.0560    -1.6400 ha         1 5K7       0.117250
     35 H11         -0.7550    -1.7430    -2.3430 hc         1 5K7       0.053700
     36 H12          0.3060    -2.4520    -1.1530 hc         1 5K7       0.053700
     37 H13         -2.0270    -3.2350    -0.8140 hc         1 5K7       0.042950
     38 H14         -1.4810    -2.3210     0.5900 hc         1 5K7       0.042950
     39 H15         -3.2440    -1.2490    -1.6940 hc         1 5K7       0.067700
     40 H16         -4.4170    -2.7930    -0.1420 hc         1 5K7       0.071200
     41 H17         -3.9450    -1.7490     1.2330 hc         1 5K7       0.071200
     42 H18         -6.7640     1.4610     0.0090 h1         1 5K7       0.047700
     43 H19         -7.7570     0.2210     0.8180 h1         1 5K7       0.047700
     44 H20         -6.8970     1.4420     1.7800 h1         1 5K7       0.047700
     45 H21         -3.3600     0.8870    -0.4080 hc         1 5K7       0.042950
     46 H22         -2.3230     0.2220     0.8490 hc         1 5K7       0.042950
     47 H23         -1.0240     1.6720    -0.6510 hc         1 5K7       0.053700
     48 H24         -1.5330     0.7790    -2.0730 hc         1 5K7       0.053700
     49 H25          1.1870     2.1800    -2.0900 ha         1 5K7       0.117250
     50 H26          1.8630     4.5110    -1.5360 ha         1 5K7       0.120750
@<TRIPOS>BOND
     1     1     2 1   
     2     1    27 1   
     3     2     3 ar  
     4     2    26 ar  
     5     3     4 ar  
     6     3    28 1   
     7     4     5 ar  
     8     4    29 1   
     9     5     6 1   
    10     5    25 ar  
    11     6     7 1   
    12     6    14 2   
    13     7     8 ar  
    14     7    13 ar  
    15     8     9 ar  
    16     8    30 1   
    17     9    10 ar  
    18     9    31 1   
    19    10    11 1   
    20    10    12 ar  
    21    11    32 1   
    22    12    13 ar  
    23    12    33 1   
    24    13    34 1   
    25    14    15 1   
    26    14    24 1   
    27    15    16 1   
    28    15    35 1   
    29    15    36 1   
    30    16    17 1   
    31    16    37 1   
    32    16    38 1   
    33    17    18 1   
    34    17    23 1   
    35    17    39 1   
    36    18    19 1   
    37    18    40 1   
    38    18    41 1   
    39    19    20 1   
    40    19    22 2   
    41    20    21 1   
    42    21    42 1   
    43    21    43 1   
    44    21    44 1   
    45    23    24 1   
    46    23    45 1   
    47    23    46 1   
    48    24    47 1   
    49    24    48 1   
    50    25    26 ar  
    51    25    49 1   
    52    26    50 1   
@<TRIPOS>SUBSTRUCTURE
     1 5K7         1 TEMP              0 ****  ****    0 ROOT
