@<TRIPOS>MOLECULE
5K8
   56    58     1     0     0
SMALL
No Charge or Current Charge


@<TRIPOS>ATOM
      1 O01         -6.8840     1.8720     0.4640 oh         1 5K8      -0.533600
      2 C02         -5.6130     1.4240     0.2650 ca         1 5K8       0.140600
      3 C03         -5.3510     0.4400    -0.7010 ca         1 5K8      -0.178250
      4 C04         -4.0360    -0.0180    -0.9000 ca         1 5K8      -0.058000
      5 C05         -2.9770     0.5120    -0.1390 ca         1 5K8      -0.086300
      6 C06         -1.5900     0.0060    -0.3380 ce         1 5K8       0.004600
      7 C07         -1.4310    -1.4470    -0.0470 ca         1 5K8      -0.086300
      8 C08         -1.6920    -1.9390     1.2470 ca         1 5K8      -0.058000
      9 C09         -1.5500    -3.3100     1.5250 ca         1 5K8      -0.178250
     10 C10         -1.1550    -4.1950     0.5110 ca         1 5K8       0.140600
     11 O11         -1.0200    -5.5220     0.7900 oh         1 5K8      -0.533600
     12 C12         -0.9040    -3.7150    -0.7840 ca         1 5K8      -0.178250
     13 C13         -1.0470    -2.3440    -1.0640 ca         1 5K8      -0.058000
     14 C14         -0.5560     0.8000    -0.7410 c2         1 5K8      -0.092400
     15 C15         -0.7010     2.2790    -1.1080 c6         1 5K8      -0.045200
     16 C16          0.2320     3.1530    -0.2410 c6         1 5K8      -0.070400
     17 C17          1.7030     2.6850    -0.3580 c6         1 5K8      -0.076400
     18 C18          1.8590     1.1780     0.0040 c6         1 5K8      -0.043700
     19 C19          3.3470     0.6860    -0.1080 c3         1 5K8      -0.180700
     20 C20          4.3110     1.5330     0.7190 c          1 5K8       0.598100
     21 O21          5.0430     2.3750    -0.0780 os         1 5K8      -0.441100
     22 C22          5.9700     3.2760     0.5570 c3         1 5K8       0.151900
     23 O23          4.3700     1.5260     1.9400 o          1 5K8      -0.462500
     24 C24          3.5030    -0.7810     0.2870 c          1 5K8       0.598100
     25 O25          3.6070    -1.5860    -0.8190 os         1 5K8      -0.441100
     26 C26          3.6830    -3.0100    -0.6170 c3         1 5K8       0.151900
     27 O27          3.4490    -1.2020     1.4340 o          1 5K8      -0.462500
     28 C28          0.8920     0.3170    -0.8640 c6         1 5K8      -0.041200
     29 C29         -3.2490     1.4900     0.8390 ca         1 5K8      -0.058000
     30 C30         -4.5640     1.9470     1.0360 ca         1 5K8      -0.178250
     31 H1          -7.4790     1.3990    -0.1560 ho         1 5K8       0.463000
     32 H2          -6.1580     0.0240    -1.3000 ha         1 5K8       0.120250
     33 H3          -3.8370    -0.7830    -1.6470 ha         1 5K8       0.117000
     34 H4          -1.9990    -1.2560     2.0360 ha         1 5K8       0.117000
     35 H5          -1.7480    -3.6840     2.5260 ha         1 5K8       0.120250
     36 H6          -0.7500    -5.9850    -0.0310 ho         1 5K8       0.463000
     37 H7          -0.6020    -4.3940    -1.5770 ha         1 5K8       0.120250
     38 H8          -0.8570    -1.9750    -2.0690 ha         1 5K8       0.117000
     39 H9          -0.4410     2.4100    -2.1670 hc         1 5K8       0.052200
     40 H10         -1.7340     2.6340    -1.0160 hc         1 5K8       0.052200
     41 H11          0.1490     4.2050    -0.5480 hc         1 5K8       0.044200
     42 H12         -0.0900     3.1070     0.8080 hc         1 5K8       0.044200
     43 H13          2.0640     2.8620    -1.3810 hc         1 5K8       0.043700
     44 H14          2.3230     3.3070     0.3020 hc         1 5K8       0.043700
     45 H15          1.5670     1.0510     1.0580 hc         1 5K8       0.086700
     46 H16          3.6280     0.7830    -1.1620 hc         1 5K8       0.099700
     47 H17          6.7280     2.7210     1.1250 h1         1 5K8       0.050533
     48 H18          6.4870     3.8850    -0.1960 h1         1 5K8       0.050533
     49 H19          5.4480     3.9550     1.2440 h1         1 5K8       0.050533
     50 H20          4.5600    -3.2740    -0.0110 h1         1 5K8       0.050533
     51 H21          2.7830    -3.3810    -0.1090 h1         1 5K8       0.050533
     52 H22          3.7670    -3.5280    -1.5800 h1         1 5K8       0.050533
     53 H23          0.9820    -0.7330    -0.5670 hc         1 5K8       0.054200
     54 H24          1.1980     0.3600    -1.9190 hc         1 5K8       0.054200
     55 H25         -2.4410     1.8920     1.4450 ha         1 5K8       0.117000
     56 H26         -4.7680     2.7040     1.7880 ha         1 5K8       0.120250
@<TRIPOS>BOND
     1     1     2 1   
     2     1    31 1   
     3     2     3 ar  
     4     2    30 ar  
     5     3     4 ar  
     6     3    32 1   
     7     4     5 ar  
     8     4    33 1   
     9     5     6 1   
    10     5    29 ar  
    11     6     7 1   
    12     6    14 2   
    13     7     8 ar  
    14     7    13 ar  
    15     8     9 ar  
    16     8    34 1   
    17     9    10 ar  
    18     9    35 1   
    19    10    11 1   
    20    10    12 ar  
    21    11    36 1   
    22    12    13 ar  
    23    12    37 1   
    24    13    38 1   
    25    14    15 1   
    26    14    28 1   
    27    15    16 1   
    28    15    39 1   
    29    15    40 1   
    30    16    17 1   
    31    16    41 1   
    32    16    42 1   
    33    17    18 1   
    34    17    43 1   
    35    17    44 1   
    36    18    19 1   
    37    18    28 1   
    38    18    45 1   
    39    19    20 1   
    40    19    24 1   
    41    19    46 1   
    42    20    21 1   
    43    20    23 2   
    44    21    22 1   
    45    22    47 1   
    46    22    48 1   
    47    22    49 1   
    48    24    25 1   
    49    24    27 2   
    50    25    26 1   
    51    26    50 1   
    52    26    51 1   
    53    26    52 1   
    54    28    53 1   
    55    28    54 1   
    56    29    30 ar  
    57    29    55 1   
    58    30    56 1   
@<TRIPOS>SUBSTRUCTURE
     1 5K8         1 TEMP              0 ****  ****    0 ROOT
