@<TRIPOS>MOLECULE
5K8
   56    58     1     0     0
SMALL
abcg2


@<TRIPOS>ATOM
      1 O01         -6.7340     2.1150     0.9140 oh         1 5K8      -0.533600
      2 C02         -5.5370     1.5930     0.5770 ca         1 5K8       0.140600
      3 C03         -5.3970     0.5870    -0.3770 ca         1 5K8      -0.178250
      4 C04         -4.1400     0.0850    -0.6750 ca         1 5K8      -0.058000
      5 C05         -2.9920     0.5760    -0.0550 ca         1 5K8      -0.086300
      6 C06         -1.6550     0.0160    -0.3770 ce         1 5K8       0.004600
      7 C07         -1.5520    -1.4550    -0.2160 ca         1 5K8      -0.086300
      8 C08         -1.9480    -2.0710     0.9730 ca         1 5K8      -0.058000
      9 C09         -1.8750    -3.4430     1.1400 ca         1 5K8      -0.178250
     10 C10         -1.4140    -4.2470     0.0990 ca         1 5K8       0.140600
     11 O11         -1.3630    -5.5790     0.3050 oh         1 5K8      -0.533600
     12 C12         -1.0380    -3.6550    -1.1030 ca         1 5K8      -0.178250
     13 C13         -1.1120    -2.2780    -1.2500 ca         1 5K8      -0.058000
     14 C14         -0.6300     0.7830    -0.7890 c2         1 5K8      -0.092400
     15 C15         -0.7460     2.2470    -1.1100 c6         1 5K8      -0.045200
     16 C16          0.2060     3.0760    -0.2500 c6         1 5K8      -0.070400
     17 C17          1.6410     2.5820    -0.3800 c6         1 5K8      -0.076400
     18 C18          1.7460     1.0910    -0.0610 c6         1 5K8      -0.043700
     19 C19          3.1760     0.5600    -0.2530 c3         1 5K8      -0.180700
     20 C20          4.1790     1.4290     0.4850 c          1 5K8       0.598100
     21 O21          4.8940     2.1760    -0.3330 os         1 5K8      -0.441100
     22 C22          5.8390     3.0780     0.2510 c3         1 5K8       0.151900
     23 O23          4.2880     1.4360     1.6850 o          1 5K8      -0.462500
     24 C24          3.3560    -0.8440     0.2990 c          1 5K8       0.598100
     25 O25          4.4210    -1.4190    -0.2380 os         1 5K8      -0.441100
     26 C26          4.7660    -2.7300     0.2170 c3         1 5K8       0.151900
     27 O27          2.6610    -1.3590     1.1330 o          1 5K8      -0.462500
     28 C28          0.7790     0.2820    -0.9450 c6         1 5K8      -0.041200
     29 C29         -3.1550     1.5730     0.9060 ca         1 5K8      -0.058000
     30 C30         -4.4050     2.0810     1.2230 ca         1 5K8      -0.178250
     31 H1          -7.4360     1.7050     0.3970 ho         1 5K8       0.463000
     32 H2          -6.2690     0.1930    -0.8870 ha         1 5K8       0.120250
     33 H3          -4.0540    -0.7030    -1.4140 ha         1 5K8       0.117000
     34 H4          -2.3180    -1.4670     1.7930 ha         1 5K8       0.117000
     35 H5          -2.1790    -3.8950     2.0760 ha         1 5K8       0.120250
     36 H6          -1.0280    -6.0250    -0.4810 ho         1 5K8       0.463000
     37 H7          -0.6960    -4.2660    -1.9310 ha         1 5K8       0.120250
     38 H8          -0.8270    -1.8400    -2.1990 ha         1 5K8       0.117000
     39 H9          -0.4630     2.3810    -2.1620 hc         1 5K8       0.052200
     40 H10         -1.7680     2.6120    -1.0130 hc         1 5K8       0.052200
     41 H11          0.1490     4.1280    -0.5370 hc         1 5K8       0.044200
     42 H12         -0.1060     3.0190     0.7980 hc         1 5K8       0.044200
     43 H13          1.9990     2.7650    -1.3990 hc         1 5K8       0.043700
     44 H14          2.2780     3.1690     0.2870 hc         1 5K8       0.043700
     45 H15          1.4580     0.9420     0.9850 hc         1 5K8       0.086700
     46 H16          3.4200     0.5570    -1.3190 hc         1 5K8       0.099700
     47 H17          6.5900     2.5420     0.8310 h1         1 5K8       0.050533
     48 H18          6.3170     3.5870    -0.5800 h1         1 5K8       0.050533
     49 H19          5.3430     3.8090     0.8890 h1         1 5K8       0.050533
     50 H20          4.9950    -2.7310     1.2820 h1         1 5K8       0.050533
     51 H21          3.9630    -3.4400     0.0190 h1         1 5K8       0.050533
     52 H22          5.6490    -3.0170    -0.3450 h1         1 5K8       0.050533
     53 H23          0.8530    -0.7750    -0.6950 hc         1 5K8       0.054200
     54 H24          1.0930     0.3880    -1.9910 hc         1 5K8       0.054200
     55 H25         -2.2870     1.9560     1.4290 ha         1 5K8       0.117000
     56 H26         -4.5040     2.8530     1.9770 ha         1 5K8       0.120250
@<TRIPOS>BOND
     1     1     2 1   
     2     1    31 1   
     3     2     3 ar  
     4     2    30 ar  
     5     3     4 ar  
     6     3    32 1   
     7     4     5 ar  
     8     4    33 1   
     9     5     6 1   
    10     5    29 ar  
    11     6     7 1   
    12     6    14 2   
    13     7     8 ar  
    14     7    13 ar  
    15     8     9 ar  
    16     8    34 1   
    17     9    10 ar  
    18     9    35 1   
    19    10    11 1   
    20    10    12 ar  
    21    11    36 1   
    22    12    13 ar  
    23    12    37 1   
    24    13    38 1   
    25    14    15 1   
    26    14    28 1   
    27    15    16 1   
    28    15    39 1   
    29    15    40 1   
    30    16    17 1   
    31    16    41 1   
    32    16    42 1   
    33    17    18 1   
    34    17    43 1   
    35    17    44 1   
    36    18    19 1   
    37    18    28 1   
    38    18    45 1   
    39    19    20 1   
    40    19    24 1   
    41    19    46 1   
    42    20    21 1   
    43    20    23 2   
    44    21    22 1   
    45    22    47 1   
    46    22    48 1   
    47    22    49 1   
    48    24    25 1   
    49    24    27 2   
    50    25    26 1   
    51    26    50 1   
    52    26    51 1   
    53    26    52 1   
    54    28    53 1   
    55    28    54 1   
    56    29    30 ar  
    57    29    55 1   
    58    30    56 1   
@<TRIPOS>SUBSTRUCTURE
     1 5K8         1 TEMP              0 ****  ****    0 ROOT
