@<TRIPOS>MOLECULE
5K9
   55    57     1     0     0
SMALL
bcc


@<TRIPOS>ATOM
      1 C10          5.5370    25.6790    -0.5990 c6         1 5K9       0.015600
      2 C13          6.5560    23.3040     0.3550 c6         1 5K9      -0.071400
      3 C15          5.0890    25.2810     0.8260 c6         1 5K9      -0.064400
      4 C17          5.2980    24.8620    -2.9910 c6         1 5K9       0.172800
      5 C20          3.4440    27.9670    -2.8310 ca         1 5K9      -0.201000
      6 C21          6.6090    25.4810    -3.4700 c3         1 5K9      -0.099100
      7 C22          4.9280    23.6790    -3.8720 c3         1 5K9      -0.099100
      8 C01          1.0890    33.3980    -2.7280 c3         1 5K9      -0.090100
      9 C02          0.1560    32.4270    -2.0130 c3         1 5K9      -0.074400
     10 C03          0.0180    31.0520    -2.6770 c3         1 5K9      -0.072400
     11 C04          1.0040    29.9880    -2.2020 c3         1 5K9      -0.072400
     12 C06          3.3500    29.1250    -2.0750 ca         1 5K9      -0.007300
     13 C07          4.0490    29.2000    -0.8750 ca         1 5K9      -0.261000
     14 C08          4.7930    28.1150    -0.4230 ca         1 5K9       0.173100
     15 C09          4.8340    26.9060    -1.1290 ca         1 5K9      -0.189300
     16 C11          5.2980    24.4740    -1.5130 c6         1 5K9      -0.089700
     17 C12          6.2680    23.3420    -1.1520 c6         1 5K9      -0.064400
     18 C14          5.3560    23.8000     1.1520 c6         1 5K9      -0.063700
     19 C16          5.5400    23.6010     2.6500 c3         1 5K9      -0.086100
     20 C19          4.1860    26.8810    -2.3670 ca         1 5K9       0.182100
     21 O18          4.2320    25.8100    -3.1840 os         1 5K9      -0.328900
     22 O23          5.5110    28.1920     0.7180 oh         1 5K9      -0.497100
     23 H1           6.6160    25.8790    -0.5710 hc         1 5K9       0.060700
     24 H132         6.8230    22.2880     0.6550 hc         1 5K9       0.040200
     25 H131         7.4240    23.9270     0.5960 hc         1 5K9       0.040200
     26 H152         5.6100    25.9000     1.5570 hc         1 5K9       0.048700
     27 H151         4.0220    25.4910     0.9430 hc         1 5K9       0.048700
     28 H201         2.9430    27.8930    -3.7890 ha         1 5K9       0.146000
     29 H213         6.9010    26.3620    -2.8970 hc         1 5K9       0.046033
     30 H211         7.4240    24.7610    -3.4030 hc         1 5K9       0.046033
     31 H212         6.5220    25.7770    -4.5160 hc         1 5K9       0.046033
     32 H221         3.9990    23.2120    -3.5420 hc         1 5K9       0.046033
     33 H223         4.8060    23.9920    -4.9100 hc         1 5K9       0.046033
     34 H222         5.7120    22.9220    -3.8480 hc         1 5K9       0.046033
     35 H013         1.0990    34.3700    -2.2320 hc         1 5K9       0.031033
     36 H011         2.1180    33.0410    -2.7620 hc         1 5K9       0.031033
     37 H012         0.7660    33.5590    -3.7580 hc         1 5K9       0.031033
     38 H021         0.4790    32.2990    -0.9750 hc         1 5K9       0.036200
     39 H022        -0.8320    32.8910    -1.9560 hc         1 5K9       0.036200
     40 H032        -0.9870    30.6680    -2.4850 hc         1 5K9       0.038200
     41 H031         0.0910    31.1610    -3.7650 hc         1 5K9       0.038200
     42 H042         0.8960    29.8550    -1.1210 hc         1 5K9       0.042200
     43 H041         0.7280    29.0310    -2.6530 hc         1 5K9       0.042200
     44 H052         2.5860    30.4250    -3.5970 hc         1 5K9       0.048200
     45 H051         2.8000    31.1820    -2.0280 hc         1 5K9       0.048200
     46 H071         4.0170    30.1130    -0.2870 ha         1 5K9       0.130000
     47 H2           4.2790    24.1150    -1.3130 hc         1 5K9       0.062700
     48 H121         5.8330    22.3900    -1.4640 hc         1 5K9       0.039200
     49 H122         7.2070    23.4440    -1.7000 hc         1 5K9       0.039200
     50 H141         4.4860    23.2090     0.8420 hc         1 5K9       0.044700
     51 H163         4.6840    23.9830     3.2100 hc         1 5K9       0.032033
     52 H162         5.6570    22.5460     2.9020 hc         1 5K9       0.032033
     53 H161         6.4280    24.1300     3.0050 hc         1 5K9       0.032033
     54 H231         5.3930    29.0580     1.1250 ho         1 5K9       0.423000
     55 C05          2.4760    30.2630    -2.5210 c3         1 5K9      -0.033100
@<TRIPOS>BOND
     1     1     3 1   
     2     1    15 1   
     3     1    16 1   
     4     1    23 1   
     5     2    17 1   
     6     2    18 1   
     7     2    24 1   
     8     2    25 1   
     9     3    18 1   
    10     3    26 1   
    11     3    27 1   
    12     4     6 1   
    13     4     7 1   
    14     4    16 1   
    15     4    21 1   
    16     5    12 ar  
    17     5    20 ar  
    18     5    28 1   
    19     6    29 1   
    20     6    30 1   
    21     6    31 1   
    22     7    32 1   
    23     7    33 1   
    24     7    34 1   
    25     8     9 1   
    26     8    35 1   
    27     8    36 1   
    28     8    37 1   
    29     9    10 1   
    30     9    38 1   
    31     9    39 1   
    32    10    11 1   
    33    10    40 1   
    34    10    41 1   
    35    11    42 1   
    36    11    43 1   
    37    11    55 1   
    38    12    13 ar  
    39    12    55 1   
    40    13    14 ar  
    41    13    46 1   
    42    14    15 ar  
    43    14    22 1   
    44    15    20 ar  
    45    16    17 1   
    46    16    47 1   
    47    17    48 1   
    48    17    49 1   
    49    18    19 1   
    50    18    50 1   
    51    19    51 1   
    52    19    52 1   
    53    19    53 1   
    54    20    21 1   
    55    22    54 1   
    56    44    55 1   
    57    45    55 1   
@<TRIPOS>SUBSTRUCTURE
     1 5K9         1 TEMP              0 ****  ****    0 ROOT
