@<TRIPOS>MOLECULE
5K9
   55    57     1     0     0
SMALL
No Charge or Current Charge


@<TRIPOS>ATOM
      1 C10          5.5240    25.6320    -0.5550 c6         1 5K9       0.015600
      2 C13          6.6550    23.1390     0.3340 c6         1 5K9      -0.071400
      3 C15          5.1970    25.1630     0.9070 c6         1 5K9      -0.064400
      4 C17          5.3540    24.8840    -3.0140 c6         1 5K9       0.196000
      5 C20          3.3440    27.9560    -2.7500 ca         1 5K9      -0.183000
      6 C21          6.6610    25.5930    -3.4960 c3         1 5K9      -0.099100
      7 C22          5.0500    23.7100    -3.9870 c3         1 5K9      -0.099100
      8 C01          1.1220    33.3810    -3.3260 c3         1 5K9      -0.090100
      9 C02          0.2340    32.7360    -2.2380 c3         1 5K9      -0.074400
     10 C03         -0.0910    31.2370    -2.4650 c3         1 5K9      -0.072400
     11 C04          0.9070    30.2220    -1.8490 c3         1 5K9      -0.072400
     12 C06          3.1800    29.0870    -1.9390 ca         1 5K9      -0.007300
     13 C07          3.8150    29.1240    -0.6890 ca         1 5K9      -0.243000
     14 C08          4.5800    28.0380    -0.2390 ca         1 5K9       0.173100
     15 C09          4.7150    26.8690    -1.0300 ca         1 5K9      -0.189300
     16 C11          5.3680    24.4270    -1.5260 c6         1 5K9      -0.089700
     17 C12          6.4160    23.3130    -1.1940 c6         1 5K9      -0.064400
     18 C14          5.4500    23.6440     1.1680 c6         1 5K9      -0.063700
     19 C16          5.6190    23.3430     2.6800 c3         1 5K9      -0.086100
     20 C19          4.1180    26.8700    -2.3170 ca         1 5K9       0.182100
     21 O18          4.2780    25.8210    -3.1990 os         1 5K9      -0.352100
     22 O23          5.2070    28.1600     0.9640 oh         1 5K9      -0.536100
     23 H1           6.5830    25.9270    -0.5660 hc         1 5K9       0.060700
     24 H132         6.8620    22.0830     0.5560 hc         1 5K9       0.040200
     25 H131         7.5550    23.6960     0.6280 hc         1 5K9       0.040200
     26 H152         5.8050    25.7480     1.6100 hc         1 5K9       0.048700
     27 H151         4.1490    25.3910     1.1460 hc         1 5K9       0.048700
     28 H201         2.8820    27.9190    -3.7330 ha         1 5K9       0.128000
     29 H213         6.9270    26.4470    -2.8630 hc         1 5K9       0.046033
     30 H211         7.5150    24.9070    -3.5020 hc         1 5K9       0.046033
     31 H212         6.5460    25.9730    -4.5180 hc         1 5K9       0.046033
     32 H221         4.1350    23.1800    -3.6970 hc         1 5K9       0.046033
     33 H223         4.9110    24.0700    -5.0140 hc         1 5K9       0.046033
     34 H222         5.8660    22.9790    -4.0060 hc         1 5K9       0.046033
     35 H013         1.2540    34.4500    -3.1190 hc         1 5K9       0.031033
     36 H011         2.1150    32.9240    -3.3680 hc         1 5K9       0.031033
     37 H012         0.6550    33.2820    -4.3130 hc         1 5K9       0.031033
     38 H021         0.6980    32.8720    -1.2530 hc         1 5K9       0.036200
     39 H022        -0.7120    33.2910    -2.2110 hc         1 5K9       0.036200
     40 H032        -1.0740    31.0370    -2.0190 hc         1 5K9       0.038200
     41 H031        -0.2040    31.0400    -3.5380 hc         1 5K9       0.038200
     42 H042         0.9460    30.3660    -0.7620 hc         1 5K9       0.042200
     43 H041         0.5030    29.2150    -2.0110 hc         1 5K9       0.042200
     44 H052         2.3010    30.2830    -3.5110 hc         1 5K9       0.048200
     45 H051         2.8260    31.2000    -2.1050 hc         1 5K9       0.048200
     46 H071         3.7100    30.0100    -0.0670 ha         1 5K9       0.112000
     47 H2           4.3710    23.9990    -1.3420 hc         1 5K9       0.062700
     48 H121         6.0680    22.3590    -1.6130 hc         1 5K9       0.039200
     49 H122         7.3800    23.5220    -1.6750 hc         1 5K9       0.039200
     50 H141         4.5580    23.0810     0.8540 hc         1 5K9       0.044700
     51 H163         4.7460    23.6840     3.2510 hc         1 5K9       0.032033
     52 H162         5.7300    22.2670     2.8600 hc         1 5K9       0.032033
     53 H161         6.5040    23.8430     3.0910 hc         1 5K9       0.032033
     54 H231         4.9920    29.0430     1.3290 ho         1 5K9       0.462000
     55 C05          2.3430    30.2660    -2.4150 c3         1 5K9      -0.033100
@<TRIPOS>BOND
     1     1     3 1   
     2     1    15 1   
     3     1    16 1   
     4     1    23 1   
     5     2    17 1   
     6     2    18 1   
     7     2    24 1   
     8     2    25 1   
     9     3    18 1   
    10     3    26 1   
    11     3    27 1   
    12     4     6 1   
    13     4     7 1   
    14     4    16 1   
    15     4    21 1   
    16     5    12 ar  
    17     5    20 ar  
    18     5    28 1   
    19     6    29 1   
    20     6    30 1   
    21     6    31 1   
    22     7    32 1   
    23     7    33 1   
    24     7    34 1   
    25     8     9 1   
    26     8    35 1   
    27     8    36 1   
    28     8    37 1   
    29     9    10 1   
    30     9    38 1   
    31     9    39 1   
    32    10    11 1   
    33    10    40 1   
    34    10    41 1   
    35    11    42 1   
    36    11    43 1   
    37    11    55 1   
    38    12    13 ar  
    39    12    55 1   
    40    13    14 ar  
    41    13    46 1   
    42    14    15 ar  
    43    14    22 1   
    44    15    20 ar  
    45    16    17 1   
    46    16    47 1   
    47    17    48 1   
    48    17    49 1   
    49    18    19 1   
    50    18    50 1   
    51    19    51 1   
    52    19    52 1   
    53    19    53 1   
    54    20    21 1   
    55    22    54 1   
    56    44    55 1   
    57    45    55 1   
@<TRIPOS>SUBSTRUCTURE
     1 5K9         1 TEMP              0 ****  ****    0 ROOT
