@<TRIPOS>MOLECULE
5KA
   60    62     1     0     0
SMALL
bcc


@<TRIPOS>ATOM
      1 O01          4.5390    -5.3410    -0.3380 oh         1 5KA      -0.495100
      2 C02          4.0800    -4.0820    -0.1950 ca         1 5KA       0.139100
      3 C03          3.9770    -3.1910    -1.2610 ca         1 5KA      -0.197000
      4 C04          3.5020    -1.9070    -1.0480 ca         1 5KA      -0.078250
      5 C05          3.0990    -1.4780     0.2160 ca         1 5KA      -0.084300
      6 C06          2.6090    -0.0930     0.4290 ce         1 5KA      -0.008400
      7 C07          3.5390     0.9660    -0.0400 ca         1 5KA      -0.084300
      8 C08          3.1430     1.9370    -0.9600 ca         1 5KA      -0.078250
      9 C09          4.0160     2.9140    -1.4100 ca         1 5KA      -0.197000
     10 C10          5.3280     2.9400    -0.9460 ca         1 5KA       0.139100
     11 O11          6.1440     3.9110    -1.4060 oh         1 5KA      -0.495100
     12 C12          5.7490     1.9690    -0.0390 ca         1 5KA      -0.197000
     13 C13          4.8640     0.9950     0.3940 ca         1 5KA      -0.078250
     14 C14          1.4250     0.1810     1.0060 c2         1 5KA      -0.085400
     15 C15          0.9700     1.5650     1.3740 c6         1 5KA      -0.043200
     16 C16         -0.3430     1.9280     0.6820 c6         1 5KA      -0.068900
     17 C17         -1.4370     0.9010     0.9660 c6         1 5KA      -0.060700
     18 C18         -2.7210     1.2780     0.2280 c3         1 5KA      -0.077400
     19 C19         -3.9150     0.4170     0.5960 c3         1 5KA       0.141400
     20 O20         -5.0590     0.9220    -0.0510 os         1 5KA      -0.417600
     21 C26         -0.9420    -0.5010     0.6190 c6         1 5KA      -0.068900
     22 C27          0.3790    -0.8520     1.3170 c6         1 5KA      -0.043200
     23 C28          3.2210    -2.3810     1.2720 ca         1 5KA      -0.078250
     24 C29          3.7020    -3.6660     1.0790 ca         1 5KA      -0.197000
     25 H1           4.7570    -5.5170    -1.2600 ho         1 5KA       0.425000
     26 H2           4.2690    -3.4980    -2.2590 ha         1 5KA       0.138500
     27 H3           3.4380    -1.2260    -1.8890 ha         1 5KA       0.135250
     28 H5           2.1300     1.9260    -1.3440 ha         1 5KA       0.135250
     29 H6           3.6840     3.6550    -2.1270 ha         1 5KA       0.138500
     30 H7           7.0220     3.8220    -1.0210 ho         1 5KA       0.425000
     31 H8           6.7690     1.9720     0.3300 ha         1 5KA       0.138500
     32 H9           5.2150     0.2460     1.0940 ha         1 5KA       0.135250
     33 H11          0.8010     1.5820     2.4590 hc         1 5KA       0.050950
     34 H12          1.7310     2.3180     1.1710 hc         1 5KA       0.050950
     35 H13         -0.6700     2.9190     1.0090 hc         1 5KA       0.042200
     36 H14         -0.1790     1.9930    -0.3990 hc         1 5KA       0.042200
     37 H15         -1.6410     0.9290     2.0460 hc         1 5KA       0.044700
     38 H16         -2.9620     2.3220     0.4530 hc         1 5KA       0.052700
     39 H17         -2.5490     1.2200    -0.8520 hc         1 5KA       0.052700
     40 H18         -3.7480    -0.6290     0.3050 h1         1 5KA       0.020200
     41 H19         -4.0560     0.4210     1.6880 h1         1 5KA       0.020200
     42 H21         -1.6890    -1.2520     0.8870 hc         1 5KA       0.042200
     43 H22         -0.8020    -0.5750    -0.4660 hc         1 5KA       0.042200
     44 H23          0.6880    -1.8520     1.0160 hc         1 5KA       0.050950
     45 H24          0.2070    -0.8870     2.3990 hc         1 5KA       0.050950
     46 H25          2.9430    -2.0700     2.2720 ha         1 5KA       0.135250
     47 H26          3.7910    -4.3470     1.9170 ha         1 5KA       0.138500
     48 C1          -6.2130     0.1550     0.1880 c3         1 5KA       0.142400
     49 C2          -7.3850     0.7670    -0.5540 c3         1 5KA      -0.080400
     50 C3          -8.6650    -0.0320    -0.3370 c3         1 5KA      -0.112400
     51 C4          -9.8220     0.5890    -1.0810 c3         1 5KA       0.166900
     52 F1         -10.9920    -0.1400    -0.8580 f          1 5KA      -0.254300
     53 H4          -6.0630    -0.8830    -0.1420 h1         1 5KA       0.020200
     54 H10         -6.4330     0.1140     1.2650 h1         1 5KA       0.020200
     55 H20         -7.5300     1.7980    -0.2170 hc         1 5KA       0.053700
     56 H27         -7.1520     0.8110    -1.6230 hc         1 5KA       0.053700
     57 H28         -8.5220    -1.0620    -0.6770 hc         1 5KA       0.054700
     58 H29         -8.9000    -0.0730     0.7300 hc         1 5KA       0.054700
     59 H30         -9.9980     1.6130    -0.7460 h1         1 5KA       0.042700
     60 H31         -9.6380     0.6030    -2.1570 h1         1 5KA       0.042700
@<TRIPOS>BOND
     1     1     2 1   
     2     1    25 1   
     3     2     3 ar  
     4     2    24 ar  
     5     3     4 ar  
     6     3    26 1   
     7     4     5 ar  
     8     4    27 1   
     9     5     6 1   
    10     5    23 ar  
    11     6     7 1   
    12     6    14 2   
    13     7     8 ar  
    14     7    13 ar  
    15     8     9 ar  
    16     8    28 1   
    17     9    10 ar  
    18     9    29 1   
    19    10    11 1   
    20    10    12 ar  
    21    11    30 1   
    22    12    13 ar  
    23    12    31 1   
    24    13    32 1   
    25    14    15 1   
    26    14    22 1   
    27    15    16 1   
    28    15    33 1   
    29    15    34 1   
    30    16    17 1   
    31    16    35 1   
    32    16    36 1   
    33    17    18 1   
    34    17    21 1   
    35    17    37 1   
    36    18    19 1   
    37    18    38 1   
    38    18    39 1   
    39    19    20 1   
    40    19    40 1   
    41    19    41 1   
    42    20    48 1   
    43    21    22 1   
    44    21    42 1   
    45    21    43 1   
    46    22    44 1   
    47    22    45 1   
    48    23    24 ar  
    49    23    46 1   
    50    24    47 1   
    51    48    49 1   
    52    48    53 1   
    53    48    54 1   
    54    49    50 1   
    55    49    55 1   
    56    49    56 1   
    57    50    51 1   
    58    50    57 1   
    59    50    58 1   
    60    51    52 1   
    61    51    59 1   
    62    51    60 1   
@<TRIPOS>SUBSTRUCTURE
     1 5KA         1 TEMP              0 ****  ****    0 ROOT
