@<TRIPOS>MOLECULE
5KA
   60    62     1     0     0
SMALL
No Charge or Current Charge


@<TRIPOS>ATOM
      1 O01          4.6080    -5.3330    -0.4400 oh         1 5KA      -0.534100
      2 C02          4.1430    -4.0680    -0.2410 ca         1 5KA       0.139100
      3 C03          3.9800    -3.1940    -1.3270 ca         1 5KA      -0.179000
      4 C04          3.5000    -1.8900    -1.1130 ca         1 5KA      -0.060250
      5 C05          3.1730    -1.4570     0.1860 ca         1 5KA      -0.084300
      6 C06          2.6860    -0.0660     0.4080 ce         1 5KA      -0.008400
      7 C07          3.6520     0.9850    -0.0220 ca         1 5KA      -0.084300
      8 C08          3.3200     1.8820    -1.0570 ca         1 5KA      -0.060250
      9 C09          4.2450     2.8570    -1.4720 ca         1 5KA      -0.179000
     10 C10          5.5060     2.9340    -0.8630 ca         1 5KA       0.139100
     11 O11          6.3950     3.8800    -1.2720 oh         1 5KA      -0.534100
     12 C12          5.8480     2.0350     0.1600 ca         1 5KA      -0.179000
     13 C13          4.9240     1.0590     0.5770 ca         1 5KA      -0.060250
     14 C14          1.4670     0.2200     0.9510 c2         1 5KA      -0.085400
     15 C15          0.9760     1.6370     1.2570 c6         1 5KA      -0.043200
     16 C16         -0.3660     1.9290     0.5460 c6         1 5KA      -0.068900
     17 C17         -1.4490     0.8840     0.9300 c6         1 5KA      -0.060700
     18 C18         -2.8000     1.1980     0.2160 c3         1 5KA      -0.077400
     19 C19         -3.9870     0.3070     0.6360 c3         1 5KA       0.164600
     20 O20         -5.1600     0.8000    -0.0300 os         1 5KA      -0.464000
     21 C26         -0.9350    -0.5540     0.6320 c6         1 5KA      -0.068900
     22 C27          0.4240    -0.8390     1.3200 c6         1 5KA      -0.043200
     23 C28          3.3520    -2.3360     1.2730 ca         1 5KA      -0.060250
     24 C29          3.8320    -3.6400     1.0580 ca         1 5KA      -0.179000
     25 H1           4.7720    -5.4560    -1.3990 ho         1 5KA       0.464000
     26 H2           4.2230    -3.5160    -2.3370 ha         1 5KA       0.120500
     27 H3           3.3770    -1.2140    -1.9570 ha         1 5KA       0.117250
     28 H5           2.3470     1.8200    -1.5380 ha         1 5KA       0.117250
     29 H6           3.9830     3.5490    -2.2690 ha         1 5KA       0.120500
     30 H7           7.2150     3.7850    -0.7420 ho         1 5KA       0.464000
     31 H8           6.8250     2.0830     0.6340 ha         1 5KA       0.120500
     32 H9           5.1940     0.3620     1.3670 ha         1 5KA       0.117250
     33 H11          0.8400     1.7390     2.3420 hc         1 5KA       0.050950
     34 H12          1.7110     2.4030     0.9840 hc         1 5KA       0.050950
     35 H13         -0.7070     2.9390     0.8100 hc         1 5KA       0.042200
     36 H14         -0.2100     1.9260    -0.5420 hc         1 5KA       0.042200
     37 H15         -1.6420     0.9680     2.0100 hc         1 5KA       0.044700
     38 H16         -3.0770     2.2400     0.4150 hc         1 5KA       0.052700
     39 H17         -2.6720     1.1170    -0.8700 hc         1 5KA       0.052700
     40 H18         -3.7940    -0.7350     0.3500 h1         1 5KA       0.020200
     41 H19         -4.1130     0.3530     1.7260 h1         1 5KA       0.020200
     42 H21         -1.6650    -1.3020     0.9690 hc         1 5KA       0.042200
     43 H22         -0.8260    -0.6910    -0.4530 hc         1 5KA       0.042200
     44 H23          0.7460    -1.8490     1.0390 hc         1 5KA       0.050950
     45 H24          0.2900    -0.8530     2.4100 hc         1 5KA       0.050950
     46 H25          3.1200    -2.0050     2.2840 ha         1 5KA       0.117250
     47 H26          3.9640    -4.3150     1.8990 ha         1 5KA       0.120500
     48 C1          -6.3600     0.0680     0.2640 c3         1 5KA       0.165600
     49 C2          -7.5120     0.7220    -0.5240 c3         1 5KA      -0.080400
     50 C3          -8.8720     0.0250    -0.2940 c3         1 5KA      -0.112400
     51 C4         -10.0250     0.6780    -1.0820 c3         1 5KA       0.185600
     52 F1         -11.1830     0.0180    -0.8330 f          1 5KA      -0.273000
     53 H4          -6.2580    -0.9830    -0.0370 h1         1 5KA       0.020200
     54 H10         -6.5820     0.1040     1.3390 h1         1 5KA       0.020200
     55 H20         -7.5910     1.7760    -0.2310 hc         1 5KA       0.053700
     56 H27         -7.2700     0.7000    -1.5930 hc         1 5KA       0.053700
     57 H28         -8.7940    -1.0300    -0.5860 hc         1 5KA       0.054700
     58 H29         -9.1150     0.0460     0.7760 hc         1 5KA       0.054700
     59 H30        -10.1470     1.7260    -0.7800 h1         1 5KA       0.042700
     60 H31         -9.8220     0.6370    -2.1590 h1         1 5KA       0.042700
@<TRIPOS>BOND
     1     1     2 1   
     2     1    25 1   
     3     2     3 ar  
     4     2    24 ar  
     5     3     4 ar  
     6     3    26 1   
     7     4     5 ar  
     8     4    27 1   
     9     5     6 1   
    10     5    23 ar  
    11     6     7 1   
    12     6    14 2   
    13     7     8 ar  
    14     7    13 ar  
    15     8     9 ar  
    16     8    28 1   
    17     9    10 ar  
    18     9    29 1   
    19    10    11 1   
    20    10    12 ar  
    21    11    30 1   
    22    12    13 ar  
    23    12    31 1   
    24    13    32 1   
    25    14    15 1   
    26    14    22 1   
    27    15    16 1   
    28    15    33 1   
    29    15    34 1   
    30    16    17 1   
    31    16    35 1   
    32    16    36 1   
    33    17    18 1   
    34    17    21 1   
    35    17    37 1   
    36    18    19 1   
    37    18    38 1   
    38    18    39 1   
    39    19    20 1   
    40    19    40 1   
    41    19    41 1   
    42    20    48 1   
    43    21    22 1   
    44    21    42 1   
    45    21    43 1   
    46    22    44 1   
    47    22    45 1   
    48    23    24 ar  
    49    23    46 1   
    50    24    47 1   
    51    48    49 1   
    52    48    53 1   
    53    48    54 1   
    54    49    50 1   
    55    49    55 1   
    56    49    56 1   
    57    50    51 1   
    58    50    57 1   
    59    50    58 1   
    60    51    52 1   
    61    51    59 1   
    62    51    60 1   
@<TRIPOS>SUBSTRUCTURE
     1 5KA         1 TEMP              0 ****  ****    0 ROOT
