@<TRIPOS>MOLECULE
5KB
   51    54     1     0     0
SMALL
No Charge or Current Charge


@<TRIPOS>ATOM
      1 O01          6.6440     1.4300     0.2120 oh         1 5KB      -0.533600
      2 C02          5.3230     1.1170     0.0990 ca         1 5KB       0.139600
      3 C03          4.6520     0.4820     1.1560 ca         1 5KB      -0.179000
      4 C04          3.2880     0.1620     1.0310 ca         1 5KB      -0.059500
      5 C05          2.5880     0.4830    -0.1470 ca         1 5KB      -0.084300
      6 C06          1.1480     0.1220    -0.2810 ce         1 5KB      -0.007400
      7 C07          0.8820    -1.3410    -0.1620 ca         1 5KB      -0.084300
      8 C08          1.4610    -2.2390    -1.0780 ca         1 5KB      -0.059500
      9 C09          1.2290    -3.6210    -0.9570 ca         1 5KB      -0.179000
     10 C10          0.4250    -4.1110     0.0830 ca         1 5KB       0.139600
     11 O11          0.2060    -5.4510     0.1920 oh         1 5KB      -0.533600
     12 C12         -0.1450    -3.2220     1.0080 ca         1 5KB      -0.179000
     13 C13          0.0870    -1.8400     0.8890 ca         1 5KB      -0.059500
     14 C14          0.1640     1.0420    -0.4880 c2         1 5KB      -0.086400
     15 C15          0.3990     2.5570    -0.5210 c6         1 5KB      -0.043200
     16 C16         -0.5070     3.2830     0.5040 c6         1 5KB      -0.072400
     17 C17         -1.9990     2.9160     0.3080 c6         1 5KB      -0.070400
     18 C18         -2.2140     1.3790     0.3560 c6         1 5KB      -0.013400
     19 C19         -3.6920     0.9950     0.1870 ca         1 5KB      -0.074300
     20 C20         -4.3970     1.3240    -0.9910 ca         1 5KB      -0.106500
     21 C21         -5.7480     0.9650    -1.1350 ca         1 5KB      -0.110000
     22 C22         -6.4070     0.2740    -0.1050 ca         1 5KB      -0.111000
     23 C23         -5.7130    -0.0590     1.0690 ca         1 5KB      -0.110000
     24 C24         -4.3610     0.3000     1.2150 ca         1 5KB      -0.106500
     25 C25         -1.3120     0.6860    -0.6990 c6         1 5KB      -0.040200
     26 C26          3.2710     1.1090    -1.2090 ca         1 5KB      -0.059500
     27 C27          4.6350     1.4290    -1.0830 ca         1 5KB      -0.179000
     28 H1           6.9560     1.1400     1.0950 ho         1 5KB       0.464000
     29 H2           5.1790     0.2330     2.0740 ha         1 5KB       0.120500
     30 H3           2.7720    -0.3320     1.8510 ha         1 5KB       0.116750
     31 H5           2.0870    -1.8640    -1.8840 ha         1 5KB       0.116750
     32 H6           1.6740    -4.3110    -1.6700 ha         1 5KB       0.120500
     33 H7          -0.3710    -5.6080     0.9690 ho         1 5KB       0.464000
     34 H8          -0.7650    -3.5930     1.8210 ha         1 5KB       0.120500
     35 H9          -0.3500    -1.1550     1.6130 ha         1 5KB       0.116750
     36 H11          1.4420     2.8170    -0.3040 hc         1 5KB       0.050700
     37 H12          0.1920     2.9350    -1.5310 hc         1 5KB       0.050700
     38 H13         -0.1940     3.0130     1.5220 hc         1 5KB       0.042700
     39 H14         -0.3750     4.3700     0.4150 hc         1 5KB       0.042700
     40 H15         -2.6030     3.4000     1.0870 hc         1 5KB       0.043200
     41 H16         -2.3480     3.3200    -0.6520 hc         1 5KB       0.043200
     42 H17         -1.8800     1.0320     1.3440 hc         1 5KB       0.050700
     43 H18         -3.9000     1.8580    -1.7970 ha         1 5KB       0.109500
     44 H19         -6.2840     1.2230    -2.0460 ha         1 5KB       0.111000
     45 H20         -7.4530    -0.0040    -0.2180 ha         1 5KB       0.112000
     46 H21         -6.2210    -0.5950     1.8680 ha         1 5KB       0.111000
     47 H22         -3.8360     0.0350     2.1300 ha         1 5KB       0.109500
     48 H23         -1.6080     1.0040    -1.7080 hc         1 5KB       0.055200
     49 H24         -1.4850    -0.3970    -0.6770 hc         1 5KB       0.055200
     50 H25          2.7440     1.3450    -2.1310 ha         1 5KB       0.116750
     51 H26          5.1560     1.9150    -1.9030 ha         1 5KB       0.120500
@<TRIPOS>BOND
     1     1     2 1   
     2     1    28 1   
     3     2     3 ar  
     4     2    27 ar  
     5     3     4 ar  
     6     3    29 1   
     7     4     5 ar  
     8     4    30 1   
     9     5     6 1   
    10     5    26 ar  
    11     6     7 1   
    12     6    14 2   
    13     7     8 ar  
    14     7    13 ar  
    15     8     9 ar  
    16     8    31 1   
    17     9    10 ar  
    18     9    32 1   
    19    10    11 1   
    20    10    12 ar  
    21    11    33 1   
    22    12    13 ar  
    23    12    34 1   
    24    13    35 1   
    25    14    15 1   
    26    14    25 1   
    27    15    16 1   
    28    15    36 1   
    29    15    37 1   
    30    16    17 1   
    31    16    38 1   
    32    16    39 1   
    33    17    18 1   
    34    17    40 1   
    35    17    41 1   
    36    18    19 1   
    37    18    25 1   
    38    18    42 1   
    39    19    20 ar  
    40    19    24 ar  
    41    20    21 ar  
    42    20    43 1   
    43    21    22 ar  
    44    21    44 1   
    45    22    23 ar  
    46    22    45 1   
    47    23    24 ar  
    48    23    46 1   
    49    24    47 1   
    50    25    48 1   
    51    25    49 1   
    52    26    27 ar  
    53    26    50 1   
    54    27    51 1   
@<TRIPOS>SUBSTRUCTURE
     1 5KB         1 TEMP              0 ****  ****    0 ROOT
