@<TRIPOS>MOLECULE
5KB
   51    54     1     0     0
SMALL
bcc


@<TRIPOS>ATOM
      1 O01          6.6210     1.4020    -0.0220 oh         1 5KB      -0.494600
      2 C02          5.3090     1.0920    -0.0410 ca         1 5KB       0.139600
      3 C03          4.6970     0.3490     0.9650 ca         1 5KB      -0.197000
      4 C04          3.3440     0.0570     0.8860 ca         1 5KB      -0.077500
      5 C05          2.5600     0.5060    -0.1760 ca         1 5KB      -0.084300
      6 C06          1.1190     0.1600    -0.2490 ce         1 5KB      -0.007400
      7 C07          0.8320    -1.2860    -0.0700 ca         1 5KB      -0.084300
      8 C08          1.4440    -2.2390    -0.8870 ca         1 5KB      -0.077500
      9 C09          1.2100    -3.5930    -0.7240 ca         1 5KB      -0.197000
     10 C10          0.3600    -4.0360     0.2890 ca         1 5KB       0.139600
     11 O11          0.1700    -5.3650     0.4160 oh         1 5KB      -0.494600
     12 C12         -0.2460    -3.1040     1.1250 ca         1 5KB      -0.197000
     13 C13         -0.0060    -1.7490     0.9410 ca         1 5KB      -0.077500
     14 C14          0.1540     1.0740    -0.4620 c2         1 5KB      -0.086400
     15 C15          0.3800     2.5610    -0.4560 c6         1 5KB      -0.043200
     16 C16         -0.5210     3.2250     0.5920 c6         1 5KB      -0.072400
     17 C17         -1.9900     2.8840     0.3820 c6         1 5KB      -0.070400
     18 C18         -2.2070     1.3690     0.3670 c6         1 5KB      -0.013400
     19 C19         -3.6460     0.9820     0.1430 ca         1 5KB      -0.074300
     20 C20         -4.3590     1.4430    -0.9630 ca         1 5KB      -0.124500
     21 C21         -5.6780     1.0660    -1.1710 ca         1 5KB      -0.128000
     22 C22         -6.3110     0.2140    -0.2750 ca         1 5KB      -0.129000
     23 C23         -5.6130    -0.2560     0.8290 ca         1 5KB      -0.128000
     24 C24         -4.2930     0.1260     1.0320 ca         1 5KB      -0.124500
     25 C25         -1.2910     0.7190    -0.6850 c6         1 5KB      -0.040200
     26 C26          3.1960     1.2360    -1.1810 ca         1 5KB      -0.077500
     27 C27          4.5480     1.5310    -1.1210 ca         1 5KB      -0.197000
     28 H1           7.0400     1.0360     0.7640 ho         1 5KB       0.425000
     29 H2           5.2740    -0.0080     1.8110 ha         1 5KB       0.138500
     30 H3           2.8890    -0.5290     1.6750 ha         1 5KB       0.134750
     31 H5           2.1150    -1.9170    -1.6740 ha         1 5KB       0.134750
     32 H6           1.6870    -4.3120    -1.3770 ha         1 5KB       0.138500
     33 H7          -0.4310    -5.5490     1.1470 ho         1 5KB       0.425000
     34 H8          -0.8980    -3.4280     1.9290 ha         1 5KB       0.138500
     35 H9          -0.4770    -1.0420     1.6130 ha         1 5KB       0.134750
     36 H11          1.4190     2.8150    -0.2540 hc         1 5KB       0.050700
     37 H12          0.1340     2.9730    -1.4420 hc         1 5KB       0.050700
     38 H13         -0.2080     2.9000     1.5890 hc         1 5KB       0.042700
     39 H14         -0.3790     4.3080     0.5580 hc         1 5KB       0.042700
     40 H15         -2.6010     3.3370     1.1660 hc         1 5KB       0.043200
     41 H16         -2.3280     3.3130    -0.5680 hc         1 5KB       0.043200
     42 H17         -1.9080     0.9800     1.3470 hc         1 5KB       0.050700
     43 H18         -3.8820     2.1080    -1.6750 ha         1 5KB       0.127500
     44 H19         -6.2130     1.4390    -2.0350 ha         1 5KB       0.129000
     45 H20         -7.3400    -0.0810    -0.4370 ha         1 5KB       0.130000
     46 H21         -6.0960    -0.9200     1.5340 ha         1 5KB       0.129000
     47 H22         -3.7560    -0.2470     1.8970 ha         1 5KB       0.127500
     48 H23         -1.5830     1.0970    -1.6740 hc         1 5KB       0.055200
     49 H24         -1.4510    -0.3580    -0.7040 hc         1 5KB       0.055200
     50 H25          2.6250     1.5770    -2.0360 ha         1 5KB       0.134750
     51 H26          5.0190     2.0950    -1.9180 ha         1 5KB       0.138500
@<TRIPOS>BOND
     1     1     2 1   
     2     1    28 1   
     3     2     3 ar  
     4     2    27 ar  
     5     3     4 ar  
     6     3    29 1   
     7     4     5 ar  
     8     4    30 1   
     9     5     6 1   
    10     5    26 ar  
    11     6     7 1   
    12     6    14 2   
    13     7     8 ar  
    14     7    13 ar  
    15     8     9 ar  
    16     8    31 1   
    17     9    10 ar  
    18     9    32 1   
    19    10    11 1   
    20    10    12 ar  
    21    11    33 1   
    22    12    13 ar  
    23    12    34 1   
    24    13    35 1   
    25    14    15 1   
    26    14    25 1   
    27    15    16 1   
    28    15    36 1   
    29    15    37 1   
    30    16    17 1   
    31    16    38 1   
    32    16    39 1   
    33    17    18 1   
    34    17    40 1   
    35    17    41 1   
    36    18    19 1   
    37    18    25 1   
    38    18    42 1   
    39    19    20 ar  
    40    19    24 ar  
    41    20    21 ar  
    42    20    43 1   
    43    21    22 ar  
    44    21    44 1   
    45    22    23 ar  
    46    22    45 1   
    47    23    24 ar  
    48    23    46 1   
    49    24    47 1   
    50    25    48 1   
    51    25    49 1   
    52    26    27 ar  
    53    26    50 1   
    54    27    51 1   
@<TRIPOS>SUBSTRUCTURE
     1 5KB         1 TEMP              0 ****  ****    0 ROOT
