@<TRIPOS>MOLECULE
5KC
   23    22     1     0     0
SMALL
bcc


@<TRIPOS>ATOM
      1 N            1.4570   -31.4170   -12.5980 n8         1 5KC      -0.926800
      2 CA           2.2050   -31.4010   -13.8530 c3         1 5KC      -0.012500
      3 C            1.9970   -30.0560   -14.5960 c          1 5KC       0.933600
      4 O            1.2110   -29.2340   -14.0850 o          1 5KC      -0.841300
      5 CB           1.6940   -32.6140   -14.6490 c3         1 5KC       0.183100
      6 OG1          0.3110   -32.4570   -14.8830 oh         1 5KC      -0.629800
      7 CG2          2.3860   -32.9200   -15.9660 c3         1 5KC       0.170800
      8 OXT          2.6560   -29.8950   -15.6420 o          1 5KC      -0.841300
      9 CAH          4.4820   -33.6180   -16.9480 c3         1 5KC       0.031800
     10 CAI          5.7580   -34.4440   -16.6790 c          1 5KC       0.927600
     11 NAL          3.7650   -33.2870   -15.7390 n7         1 5KC      -0.791200
     12 OAJ          6.6060   -34.4540   -17.5920 o          1 5KC      -0.861800
     13 OAK          5.8120   -35.0600   -15.5950 o          1 5KC      -0.861800
     14 H1           1.9220   -32.0020   -11.9150 hn         1 5KC       0.326300
     15 H2           1.4010   -30.4810   -12.2230 hn         1 5KC       0.326300
     16 H4           3.2860   -31.5280   -13.7040 h1         1 5KC       0.048700
     17 H5           1.8600   -33.4930   -13.9970 h1         1 5KC      -0.021300
     18 HG1         -0.0250   -32.1000   -14.0470 ho         1 5KC       0.418000
     19 H6           2.3490   -32.0470   -16.6170 h1         1 5KC       0.028200
     20 H7           1.8200   -33.7220   -16.4750 h1         1 5KC       0.028200
     21 H9           4.7480   -32.7040   -17.4890 h1         1 5KC       0.005200
     22 H10          3.8650   -34.2070   -17.6530 h1         1 5KC       0.005200
     23 HAL          3.8170   -34.0930   -15.1270 hn         1 5KC       0.354800
@<TRIPOS>BOND
     1     1     2 1   
     2     1    14 1   
     3     1    15 1   
     4     2     3 1   
     5     2     5 1   
     6     2    16 1   
     7     3     4 1   
     8     3     8 1   
     9     5     6 1   
    10     5     7 1   
    11     5    17 1   
    12     6    18 1   
    13     7    11 1   
    14     7    19 1   
    15     7    20 1   
    16     9    10 1   
    17     9    11 1   
    18     9    21 1   
    19     9    22 1   
    20    10    12 1   
    21    10    13 1   
    22    11    23 1   
@<TRIPOS>SUBSTRUCTURE
     1 5KC         1 TEMP              0 ****  ****    0 ROOT
