@<TRIPOS>MOLECULE
5KC
   23    22     1     0     0
SMALL
No Charge or Current Charge


@<TRIPOS>ATOM
      1 N            1.1790   -31.0670   -12.5900 n8         1 5KC      -1.037200
      2 CA           2.1730   -31.4650   -13.6870 c3         1 5KC      -0.012500
      3 C            2.6510   -30.3040   -14.6550 c          1 5KC       0.723000
      4 O            1.8180   -29.7250   -15.3430 o          1 5KC      -0.736000
      5 CB           1.6230   -32.7000   -14.4660 c3         1 5KC       0.206300
      6 OG1          0.2150   -32.4930   -14.5180 oh         1 5KC      -0.692000
      7 CG2          2.2300   -32.9910   -15.8790 c3         1 5KC       0.170800
      8 OXT          3.8010   -29.8990   -14.5380 o          1 5KC      -0.736000
      9 CAH          4.3040   -33.6720   -17.1380 c3         1 5KC       0.031800
     10 CAI          5.7930   -34.1920   -17.0730 c          1 5KC       0.717000
     11 NAL          3.6620   -33.3780   -15.8150 n7         1 5KC      -0.846400
     12 OAJ          6.6740   -33.5200   -17.5940 o          1 5KC      -0.756500
     13 OAK          6.0170   -35.2450   -16.4870 o          1 5KC      -0.756500
     14 H1           1.1670   -31.7920   -11.8590 hn         1 5KC       0.381500
     15 H2           1.5420   -30.2410   -12.0940 hn         1 5KC       0.381500
     16 H4           3.0870   -31.8000   -13.1770 h1         1 5KC       0.048700
     17 H5           1.8040   -33.5840   -13.8400 h1         1 5KC      -0.021300
     18 HG1          0.1440   -31.8090   -13.7960 ho         1 5KC       0.457000
     19 H6           2.1010   -32.1140   -16.5260 h1         1 5KC       0.028200
     20 H7           1.6550   -33.8100   -16.3340 h1         1 5KC       0.028200
     21 H9           4.2820   -32.7710   -17.7650 h1         1 5KC       0.005200
     22 H10          3.7200   -34.4400   -17.6640 h1         1 5KC       0.005200
     23 HAL          3.7410   -34.2230   -15.2330 hn         1 5KC       0.410000
@<TRIPOS>BOND
     1     1     2 1   
     2     1    14 1   
     3     1    15 1   
     4     2     3 1   
     5     2     5 1   
     6     2    16 1   
     7     3     4 1   
     8     3     8 1   
     9     5     6 1   
    10     5     7 1   
    11     5    17 1   
    12     6    18 1   
    13     7    11 1   
    14     7    19 1   
    15     7    20 1   
    16     9    10 1   
    17     9    11 1   
    18     9    21 1   
    19     9    22 1   
    20    10    12 1   
    21    10    13 1   
    22    11    23 1   
@<TRIPOS>SUBSTRUCTURE
     1 5KC         1 TEMP              0 ****  ****    0 ROOT
