@<TRIPOS>MOLECULE
5KD
   55    58     1     0     0
SMALL
bcc


@<TRIPOS>ATOM
      1 O01          7.1040     1.4060    -0.4660 oh         1 5KD      -0.495100
      2 C02          5.7960     1.1160    -0.3110 ca         1 5KD       0.139100
      3 C03          5.4430     0.2080     0.6870 ca         1 5KD      -0.196500
      4 C04          4.1130    -0.1250     0.8780 ca         1 5KD      -0.078000
      5 C05          3.0970     0.4410     0.1060 ca         1 5KD      -0.083800
      6 C06          1.6790     0.0510     0.3210 ce         1 5KD      -0.007400
      7 C07          1.4330    -1.4090     0.2250 ca         1 5KD      -0.083800
      8 C08          0.8050    -2.1210     1.2480 ca         1 5KD      -0.078000
      9 C09          0.6060    -3.4900     1.1660 ca         1 5KD      -0.196500
     10 C10          1.0430    -4.1900     0.0440 ca         1 5KD       0.139100
     11 O11          0.8320    -5.5220     0.0060 oh         1 5KD      -0.495100
     12 C12          1.6840    -3.5000    -0.9820 ca         1 5KD      -0.196500
     13 C13          1.8790    -2.1320    -0.8810 ca         1 5KD      -0.078000
     14 C14          0.7110     0.9460     0.5890 c2         1 5KD      -0.086400
     15 C15          0.9620     2.4090     0.8320 c6         1 5KD      -0.045200
     16 C16          0.1770     3.2810    -0.1480 c6         1 5KD      -0.071400
     17 C17         -1.3100     2.9540    -0.1020 c6         1 5KD      -0.070400
     18 C18         -1.5570     1.4640    -0.3470 c6         1 5KD      -0.007400
     19 C19         -3.0210     1.1070    -0.3170 ca         1 5KD      -0.112300
     20 C20         -3.6450     0.5540    -1.4340 ca         1 5KD      -0.087500
     21 C21         -4.9870     0.2140    -1.4260 ca         1 5KD      -0.188500
     22 C22         -5.7550     0.4210    -0.2800 ca         1 5KD       0.138100
     23 O23         -7.0530     0.0610    -0.3510 os         1 5KD      -0.318900
     24 C24         -7.8640     0.2470     0.7900 c3         1 5KD       0.125700
     25 C25         -5.1510     0.9740     0.8480 ca         1 5KD      -0.188500
     26 C26         -3.8020     1.3070     0.8170 ca         1 5KD      -0.087500
     27 C27         -0.7520     0.6040     0.6490 c6         1 5KD      -0.039200
     28 C28          3.4720     1.3360    -0.8920 ca         1 5KD      -0.078000
     29 C29          4.8010     1.6760    -1.1040 ca         1 5KD      -0.196500
     30 H1           7.2240     2.0350    -1.1860 ho         1 5KD       0.424500
     31 H2           6.2110    -0.2350     1.3090 ha         1 5KD       0.138500
     32 H3           3.8630    -0.8390     1.6540 ha         1 5KD       0.134750
     33 H5           0.4700    -1.5980     2.1350 ha         1 5KD       0.134750
     34 H6           0.1200    -4.0190     1.9760 ha         1 5KD       0.138500
     35 H7           1.1910    -5.8950    -0.8060 ho         1 5KD       0.424500
     36 H8           2.0380    -4.0300    -1.8600 ha         1 5KD       0.138500
     37 H9           2.3870    -1.6170    -1.6870 ha         1 5KD       0.134750
     38 H11          0.6120     2.6410     1.8470 hc         1 5KD       0.051200
     39 H12          2.0220     2.6560     0.8060 hc         1 5KD       0.051200
     40 H13          0.3390     4.3360     0.0850 hc         1 5KD       0.040700
     41 H14          0.5560     3.1210    -1.1630 hc         1 5KD       0.040700
     42 H15         -1.7110     3.2370     0.8780 hc         1 5KD       0.042700
     43 H16         -1.8520     3.5440    -0.8450 hc         1 5KD       0.042700
     44 H17         -1.1810     1.2290    -1.3500 hc         1 5KD       0.052700
     45 H18         -3.0670     0.3820    -2.3350 ha         1 5KD       0.129000
     46 H19         -5.4480    -0.2130    -2.3080 ha         1 5KD       0.138500
     47 H20         -7.5000    -0.3220     1.6490 h1         1 5KD       0.039700
     48 H21         -7.9390     1.3000     1.0730 h1         1 5KD       0.039700
     49 H22         -8.8560    -0.1150     0.5280 h1         1 5KD       0.039700
     50 H23         -5.7120     1.1530     1.7560 ha         1 5KD       0.138500
     51 H24         -3.3640     1.7320     1.7120 ha         1 5KD       0.129000
     52 H25         -0.9350    -0.4480     0.4340 hc         1 5KD       0.053700
     53 H26         -1.1270     0.7930     1.6620 hc         1 5KD       0.053700
     54 H27          2.7150     1.7740    -1.5310 ha         1 5KD       0.134750
     55 H28          5.0560     2.3710    -1.8960 ha         1 5KD       0.138500
@<TRIPOS>BOND
     1     1     2 1   
     2     1    30 1   
     3     2     3 ar  
     4     2    29 ar  
     5     3     4 ar  
     6     3    31 1   
     7     4     5 ar  
     8     4    32 1   
     9     5     6 1   
    10     5    28 ar  
    11     6     7 1   
    12     6    14 2   
    13     7     8 ar  
    14     7    13 ar  
    15     8     9 ar  
    16     8    33 1   
    17     9    10 ar  
    18     9    34 1   
    19    10    11 1   
    20    10    12 ar  
    21    11    35 1   
    22    12    13 ar  
    23    12    36 1   
    24    13    37 1   
    25    14    15 1   
    26    14    27 1   
    27    15    16 1   
    28    15    38 1   
    29    15    39 1   
    30    16    17 1   
    31    16    40 1   
    32    16    41 1   
    33    17    18 1   
    34    17    42 1   
    35    17    43 1   
    36    18    19 1   
    37    18    27 1   
    38    18    44 1   
    39    19    20 ar  
    40    19    26 ar  
    41    20    21 ar  
    42    20    45 1   
    43    21    22 ar  
    44    21    46 1   
    45    22    23 1   
    46    22    25 ar  
    47    23    24 1   
    48    24    47 1   
    49    24    48 1   
    50    24    49 1   
    51    25    26 ar  
    52    25    50 1   
    53    26    51 1   
    54    27    52 1   
    55    27    53 1   
    56    28    29 ar  
    57    28    54 1   
    58    29    55 1   
@<TRIPOS>SUBSTRUCTURE
     1 5KD         1 TEMP              0 ****  ****    0 ROOT
