@<TRIPOS>MOLECULE
5KD
   55    58     1     0     0
SMALL
No Charge or Current Charge


@<TRIPOS>ATOM
      1 O01          7.2010     1.4200    -0.2940 oh         1 5KD      -0.534100
      2 C02          5.8850     1.0990    -0.1500 ca         1 5KD       0.139100
      3 C03          5.4840     0.2690     0.9070 ca         1 5KD      -0.178500
      4 C04          4.1290    -0.0690     1.0630 ca         1 5KD      -0.060000
      5 C05          3.1660     0.4300     0.1650 ca         1 5KD      -0.083800
      6 C06          1.7330     0.0510     0.3210 ce         1 5KD      -0.007400
      7 C07          1.4820    -1.4140     0.1970 ca         1 5KD      -0.083800
      8 C08          0.9500    -2.1440     1.2790 ca         1 5KD      -0.060000
      9 C09          0.7340    -3.5280     1.1600 ca         1 5KD      -0.178500
     10 C10          1.0560    -4.1900    -0.0330 ca         1 5KD       0.139100
     11 O11          0.8440    -5.5310    -0.1390 oh         1 5KD      -0.534100
     12 C12          1.5990    -3.4710    -1.1110 ca         1 5KD      -0.178500
     13 C13          1.8160    -2.0870    -0.9940 ca         1 5KD      -0.060000
     14 C14          0.7420     0.9590     0.5510 c2         1 5KD      -0.086400
     15 C15          0.9840     2.4590     0.7520 c6         1 5KD      -0.045200
     16 C16          0.1730     3.2960    -0.2630 c6         1 5KD      -0.071400
     17 C17         -1.3340     2.9520    -0.1840 c6         1 5KD      -0.070400
     18 C18         -1.5790     1.4320    -0.3890 c6         1 5KD      -0.007400
     19 C19         -3.0730     1.0770    -0.3310 ca         1 5KD      -0.112300
     20 C20         -3.7080     0.5180    -1.4570 ca         1 5KD      -0.069500
     21 C21         -5.0740     0.1880    -1.4110 ca         1 5KD      -0.170500
     22 C22         -5.8220     0.4120    -0.2450 ca         1 5KD       0.138100
     23 O23         -7.1580     0.0680    -0.2590 os         1 5KD      -0.342100
     24 C24         -8.0110     0.2570     0.8840 c3         1 5KD       0.148900
     25 C25         -5.1910     0.9710     0.8870 ca         1 5KD      -0.170500
     26 C26         -3.8250     1.3010     0.8410 ca         1 5KD      -0.069500
     27 C27         -0.7470     0.6010     0.6260 c6         1 5KD      -0.039200
     28 C28          3.5770     1.2530    -0.9030 ca         1 5KD      -0.060000
     29 C29          4.9330     1.5900    -1.0580 ca         1 5KD      -0.178500
     30 H1           7.2950     2.0010    -1.0790 ho         1 5KD       0.463500
     31 H2           6.2230    -0.1160     1.6050 ha         1 5KD       0.120500
     32 H3           3.8230    -0.7160     1.8820 ha         1 5KD       0.116750
     33 H5           0.7050    -1.6360     2.2090 ha         1 5KD       0.116750
     34 H6           0.3190    -4.0860     1.9960 ha         1 5KD       0.120500
     35 H7           1.1270    -5.8200    -1.0330 ho         1 5KD       0.463500
     36 H8           1.8570    -3.9770    -2.0380 ha         1 5KD       0.120500
     37 H9           2.2390    -1.5330    -1.8290 ha         1 5KD       0.116750
     38 H11          0.6800     2.7330     1.7720 hc         1 5KD       0.051200
     39 H12          2.0460     2.7250     0.6850 hc         1 5KD       0.051200
     40 H13          0.3220     4.3670    -0.0700 hc         1 5KD       0.040700
     41 H14          0.5450     3.1060    -1.2800 hc         1 5KD       0.040700
     42 H15         -1.7290     3.2730     0.7890 hc         1 5KD       0.042700
     43 H16         -1.8830     3.5220    -0.9460 hc         1 5KD       0.042700
     44 H17         -1.2050     1.1770    -1.3910 hc         1 5KD       0.052700
     45 H18         -3.1460     0.3360    -2.3710 ha         1 5KD       0.111000
     46 H19         -5.5550    -0.2430    -2.2850 ha         1 5KD       0.120500
     47 H20         -7.6450    -0.3200     1.7430 h1         1 5KD       0.039700
     48 H21         -8.0590     1.3170     1.1650 h1         1 5KD       0.039700
     49 H22         -9.0300    -0.0810     0.6580 h1         1 5KD       0.039700
     50 H23         -5.7400     1.1570     1.8060 ha         1 5KD       0.120500
     51 H24         -3.3530     1.7310     1.7220 ha         1 5KD       0.111000
     52 H25         -0.9220    -0.4620     0.4230 hc         1 5KD       0.053700
     53 H26         -1.1060     0.7790     1.6490 hc         1 5KD       0.053700
     54 H27          2.8420     1.6280    -1.6120 ha         1 5KD       0.116750
     55 H28          5.2350     2.2290    -1.8840 ha         1 5KD       0.120500
@<TRIPOS>BOND
     1     1     2 1   
     2     1    30 1   
     3     2     3 ar  
     4     2    29 ar  
     5     3     4 ar  
     6     3    31 1   
     7     4     5 ar  
     8     4    32 1   
     9     5     6 1   
    10     5    28 ar  
    11     6     7 1   
    12     6    14 2   
    13     7     8 ar  
    14     7    13 ar  
    15     8     9 ar  
    16     8    33 1   
    17     9    10 ar  
    18     9    34 1   
    19    10    11 1   
    20    10    12 ar  
    21    11    35 1   
    22    12    13 ar  
    23    12    36 1   
    24    13    37 1   
    25    14    15 1   
    26    14    27 1   
    27    15    16 1   
    28    15    38 1   
    29    15    39 1   
    30    16    17 1   
    31    16    40 1   
    32    16    41 1   
    33    17    18 1   
    34    17    42 1   
    35    17    43 1   
    36    18    19 1   
    37    18    27 1   
    38    18    44 1   
    39    19    20 ar  
    40    19    26 ar  
    41    20    21 ar  
    42    20    45 1   
    43    21    22 ar  
    44    21    46 1   
    45    22    23 1   
    46    22    25 ar  
    47    23    24 1   
    48    24    47 1   
    49    24    48 1   
    50    24    49 1   
    51    25    26 ar  
    52    25    50 1   
    53    26    51 1   
    54    27    52 1   
    55    27    53 1   
    56    28    29 ar  
    57    28    54 1   
    58    29    55 1   
@<TRIPOS>SUBSTRUCTURE
     1 5KD         1 TEMP              0 ****  ****    0 ROOT
