@<TRIPOS>MOLECULE
5KE
   52    55     1     0     0
SMALL
No Charge or Current Charge


@<TRIPOS>ATOM
      1 O01          0.4430    -5.5590    -0.2630 oh         1 5KE      -0.534100
      2 C02          0.6720    -4.2230    -0.1260 ca         1 5KE       0.140600
      3 C03          1.2200    -3.4990    -1.1940 ca         1 5KE      -0.178000
      4 C04          1.4610    -2.1200    -1.0620 ca         1 5KE      -0.060250
      5 C05          1.1450    -1.4580     0.1390 ca         1 5KE      -0.084800
      6 C06          1.4210     0.0000     0.2810 ce         1 5KE      -0.007400
      7 C07          2.8590     0.3580     0.1220 ca         1 5KE      -0.084800
      8 C08          3.8180    -0.1690     1.0080 ca         1 5KE      -0.060250
      9 C09          5.1790     0.1480     0.8480 ca         1 5KE      -0.178000
     10 C10          5.5880     0.9850    -0.2000 ca         1 5KE       0.140600
     11 O11          6.9080     1.2860    -0.3470 oh         1 5KE      -0.534100
     12 C12          4.6390     1.5040    -1.0960 ca         1 5KE      -0.178000
     13 C13          3.2780     1.1870    -0.9380 ca         1 5KE      -0.060250
     14 C14          0.4470     0.9220     0.5290 c2         1 5KE      -0.087400
     15 C15          0.7150     2.4150     0.7480 c6         1 5KE      -0.044200
     16 C16         -0.0880     3.2790    -0.2510 c6         1 5KE      -0.071400
     17 C17         -1.6000     2.9590    -0.1680 c6         1 5KE      -0.070400
     18 C18         -1.8710     1.4460    -0.3910 c6         1 5KE      -0.007400
     19 C19         -3.3710     1.1160    -0.3290 ca         1 5KE      -0.110300
     20 C20         -4.1120     1.3370     0.8510 ca         1 5KE      -0.068000
     21 C21         -5.4840     1.0300     0.8970 ca         1 5KE      -0.173000
     22 C22         -6.1230     0.4990    -0.2340 ca         1 5KE       0.135100
     23 O23         -7.4510     0.1990    -0.1970 oh         1 5KE      -0.536100
     24 C24         -5.3930     0.2760    -1.4100 ca         1 5KE      -0.173000
     25 C25         -4.0220     0.5820    -1.4600 ca         1 5KE      -0.068000
     26 C26         -1.0480     0.5880     0.6080 c6         1 5KE      -0.038200
     27 C27          0.6060    -2.1930     1.2140 ca         1 5KE      -0.060250
     28 C28          0.3660    -3.5720     1.0800 ca         1 5KE      -0.178000
     29 H1           0.0620    -5.8960     0.5760 ho         1 5KE       0.463500
     30 H2           1.4610    -4.0050    -2.1260 ha         1 5KE       0.120250
     31 H3           1.8890    -1.5640    -1.8930 ha         1 5KE       0.116500
     32 H5           3.5070    -0.8220     1.8200 ha         1 5KE       0.116500
     33 H6           5.9160    -0.2580     1.5380 ha         1 5KE       0.120250
     34 H7           7.0070     1.8750    -1.1250 ho         1 5KE       0.463500
     35 H8           4.9470     2.1490    -1.9150 ha         1 5KE       0.120250
     36 H9           2.5450     1.5840    -1.6380 ha         1 5KE       0.116500
     37 H11          0.4220     2.6800     1.7730 hc         1 5KE       0.051200
     38 H12          1.7810     2.6640     0.6790 hc         1 5KE       0.051200
     39 H13          0.0810     4.3450    -0.0440 hc         1 5KE       0.040700
     40 H14          0.2760     3.0960    -1.2720 hc         1 5KE       0.040700
     41 H15         -1.9840     3.2740     0.8120 hc         1 5KE       0.042700
     42 H16         -2.1430     3.5490    -0.9180 hc         1 5KE       0.042700
     43 H17         -1.5080     1.1990    -1.3990 hc         1 5KE       0.053700
     44 H18         -3.6290     1.7470     1.7350 ha         1 5KE       0.112000
     45 H19         -6.0410     1.2060     1.8140 ha         1 5KE       0.120000
     46 H20         -7.7940     0.4190     0.6960 ho         1 5KE       0.462000
     47 H21         -5.8890    -0.1350    -2.2860 ha         1 5KE       0.120000
     48 H22         -3.4680     0.4030    -2.3790 ha         1 5KE       0.112000
     49 H23         -1.2420    -0.4690     0.3910 hc         1 5KE       0.053200
     50 H24         -1.3980     0.7580     1.6350 hc         1 5KE       0.053200
     51 H25          0.3750    -1.6930     2.1520 ha         1 5KE       0.116500
     52 H26         -0.0540    -4.1260     1.9160 ha         1 5KE       0.120250
@<TRIPOS>BOND
     1     1     2 1   
     2     1    29 1   
     3     2     3 ar  
     4     2    28 ar  
     5     3     4 ar  
     6     3    30 1   
     7     4     5 ar  
     8     4    31 1   
     9     5     6 1   
    10     5    27 ar  
    11     6     7 1   
    12     6    14 2   
    13     7     8 ar  
    14     7    13 ar  
    15     8     9 ar  
    16     8    32 1   
    17     9    10 ar  
    18     9    33 1   
    19    10    11 1   
    20    10    12 ar  
    21    11    34 1   
    22    12    13 ar  
    23    12    35 1   
    24    13    36 1   
    25    14    15 1   
    26    14    26 1   
    27    15    16 1   
    28    15    37 1   
    29    15    38 1   
    30    16    17 1   
    31    16    39 1   
    32    16    40 1   
    33    17    18 1   
    34    17    41 1   
    35    17    42 1   
    36    18    19 1   
    37    18    26 1   
    38    18    43 1   
    39    19    20 ar  
    40    19    25 ar  
    41    20    21 ar  
    42    20    44 1   
    43    21    22 ar  
    44    21    45 1   
    45    22    23 1   
    46    22    24 ar  
    47    23    46 1   
    48    24    25 ar  
    49    24    47 1   
    50    25    48 1   
    51    26    49 1   
    52    26    50 1   
    53    27    28 ar  
    54    27    51 1   
    55    28    52 1   
@<TRIPOS>SUBSTRUCTURE
     1 5KE         1 TEMP              0 ****  ****    0 ROOT
