@<TRIPOS>MOLECULE
5KE
   52    55     1     0     0
SMALL
abcg2


@<TRIPOS>ATOM
      1 O01          0.4940    -5.5370    -0.1720 oh         1 5KE      -0.534100
      2 C02          0.6730    -4.2100    -0.0090 ca         1 5KE       0.140600
      3 C03          1.2500    -3.5030    -1.0620 ca         1 5KE      -0.178000
      4 C04          1.4660    -2.1430    -0.9440 ca         1 5KE      -0.060250
      5 C05          1.1020    -1.4400     0.2060 ca         1 5KE      -0.084800
      6 C06          1.3770     0.0150     0.3150 ce         1 5KE      -0.007400
      7 C07          2.7970     0.3770     0.0810 ca         1 5KE      -0.084800
      8 C08          3.8120    -0.2170     0.8330 ca         1 5KE      -0.060250
      9 C09          5.1450     0.0810     0.6170 ca         1 5KE      -0.178000
     10 C10          5.5030     0.9790    -0.3860 ca         1 5KE       0.140600
     11 O11          6.8170     1.2290    -0.5650 oh         1 5KE      -0.534100
     12 C12          4.5090     1.5670    -1.1600 ca         1 5KE      -0.178000
     13 C13          3.1760     1.2630    -0.9240 ca         1 5KE      -0.060250
     14 C14          0.4280     0.9210     0.6030 c2         1 5KE      -0.087400
     15 C15          0.7010     2.3800     0.8480 c6         1 5KE      -0.044200
     16 C16         -0.0820     3.2660    -0.1200 c6         1 5KE      -0.071400
     17 C17         -1.5710     2.9520    -0.0760 c6         1 5KE      -0.070400
     18 C18         -1.8290     1.4640    -0.3260 c6         1 5KE      -0.007400
     19 C19         -3.2960     1.1250    -0.3180 ca         1 5KE      -0.110300
     20 C20         -4.0940     1.3270     0.8050 ca         1 5KE      -0.068000
     21 C21         -5.4480     1.0240     0.8000 ca         1 5KE      -0.173000
     22 C22         -6.0410     0.5050    -0.3460 ca         1 5KE       0.135100
     23 O23         -7.3600     0.1950    -0.4140 oh         1 5KE      -0.536100
     24 C24         -5.2630     0.2880    -1.4760 ca         1 5KE      -0.173000
     25 C25         -3.9110     0.5970    -1.4500 ca         1 5KE      -0.068000
     26 C26         -1.0390     0.5950     0.6720 c6         1 5KE      -0.038200
     27 C27          0.5350    -2.1640     1.2500 ca         1 5KE      -0.060250
     28 C28          0.3180    -3.5310     1.1510 ca         1 5KE      -0.178000
     29 H1           0.1170    -5.9300     0.6200 ho         1 5KE       0.463500
     30 H2           1.5340    -4.0250    -1.9660 ha         1 5KE       0.120250
     31 H3           1.9260    -1.6150    -1.7700 ha         1 5KE       0.116500
     32 H5           3.5580    -0.9250     1.6120 ha         1 5KE       0.116500
     33 H6           5.9130    -0.3810     1.2230 ha         1 5KE       0.120250
     34 H7           6.9440     1.8610    -1.2780 ho         1 5KE       0.463500
     35 H8           4.7620     2.2530    -1.9600 ha         1 5KE       0.120250
     36 H9           2.4210     1.7190    -1.5500 ha         1 5KE       0.116500
     37 H11          0.3720     2.6150     1.8690 hc         1 5KE       0.051200
     38 H12          1.7640     2.6110     0.8090 hc         1 5KE       0.051200
     39 H13          0.0870     4.3170     0.1210 hc         1 5KE       0.040700
     40 H14          0.2920     3.1150    -1.1380 hc         1 5KE       0.040700
     41 H15         -1.9720     3.2380     0.9020 hc         1 5KE       0.042700
     42 H16         -2.1070     3.5500    -0.8170 hc         1 5KE       0.042700
     43 H17         -1.4430     1.2270    -1.3250 hc         1 5KE       0.053700
     44 H18         -3.6670     1.7310     1.7140 ha         1 5KE       0.112000
     45 H19         -6.0340     1.1960     1.6960 ha         1 5KE       0.120000
     46 H20         -7.7920     0.4100     0.4170 ho         1 5KE       0.462000
     47 H21         -5.7130    -0.1150    -2.3750 ha         1 5KE       0.120000
     48 H22         -3.3170     0.4220    -2.3390 ha         1 5KE       0.112000
     49 H23         -1.2330    -0.4560     0.4610 hc         1 5KE       0.053200
     50 H24         -1.4100     0.7930     1.6860 hc         1 5KE       0.053200
     51 H25          0.2680    -1.6550     2.1670 ha         1 5KE       0.116500
     52 H26         -0.1200    -4.0620     1.9890 ha         1 5KE       0.120250
@<TRIPOS>BOND
     1     1     2 1   
     2     1    29 1   
     3     2     3 ar  
     4     2    28 ar  
     5     3     4 ar  
     6     3    30 1   
     7     4     5 ar  
     8     4    31 1   
     9     5     6 1   
    10     5    27 ar  
    11     6     7 1   
    12     6    14 2   
    13     7     8 ar  
    14     7    13 ar  
    15     8     9 ar  
    16     8    32 1   
    17     9    10 ar  
    18     9    33 1   
    19    10    11 1   
    20    10    12 ar  
    21    11    34 1   
    22    12    13 ar  
    23    12    35 1   
    24    13    36 1   
    25    14    15 1   
    26    14    26 1   
    27    15    16 1   
    28    15    37 1   
    29    15    38 1   
    30    16    17 1   
    31    16    39 1   
    32    16    40 1   
    33    17    18 1   
    34    17    41 1   
    35    17    42 1   
    36    18    19 1   
    37    18    26 1   
    38    18    43 1   
    39    19    20 ar  
    40    19    25 ar  
    41    20    21 ar  
    42    20    44 1   
    43    21    22 ar  
    44    21    45 1   
    45    22    23 1   
    46    22    24 ar  
    47    23    46 1   
    48    24    25 ar  
    49    24    47 1   
    50    25    48 1   
    51    26    49 1   
    52    26    50 1   
    53    27    28 ar  
    54    27    51 1   
    55    28    52 1   
@<TRIPOS>SUBSTRUCTURE
     1 5KE         1 TEMP              0 ****  ****    0 ROOT
