@<TRIPOS>MOLECULE
5KF
   48    50     1     0     0
SMALL
abcg2


@<TRIPOS>ATOM
      1 O01          5.7650     1.7360    -0.8520 oh         1 5KF      -0.534100
      2 C02          4.5260     1.3140    -0.5270 ca         1 5KF       0.139100
      3 C03          4.2920     0.3440     0.4440 ca         1 5KF      -0.179000
      4 C04          2.9960    -0.0560     0.7280 ca         1 5KF      -0.060500
      5 C05          1.8990     0.5050     0.0760 ca         1 5KF      -0.084300
      6 C06          0.5190     0.0490     0.3800 ce         1 5KF      -0.008400
      7 C07          0.3190    -1.4150     0.2420 ca         1 5KF      -0.084300
      8 C08         -0.2180    -2.1860     1.2740 ca         1 5KF      -0.060500
      9 C09         -0.3740    -3.5580     1.1540 ca         1 5KF      -0.179000
     10 C10          0.0160    -4.2020    -0.0170 ca         1 5KF       0.139100
     11 O11         -0.1510    -5.5380    -0.0910 oh         1 5KF      -0.534100
     12 C12          0.5690    -3.4530    -1.0540 ca         1 5KF      -0.179000
     13 C13          0.7210    -2.0830    -0.9140 ca         1 5KF      -0.060500
     14 C14         -0.4590     0.8940     0.7550 c2         1 5KF      -0.084400
     15 C15         -0.2400     2.3520     1.0520 c6         1 5KF      -0.045200
     16 C16         -1.1130     3.2370     0.1620 c6         1 5KF      -0.070400
     17 C17         -2.5820     2.8530     0.2760 c6         1 5KF      -0.074400
     18 C18         -2.8040     1.3670    -0.0090 c6         1 5KF      -0.057700
     19 C19         -4.2600     0.9390     0.1590 c3         1 5KF      -0.080400
     20 C20         -5.2180     1.6310    -0.7940 c3         1 5KF       0.164600
     21 O21         -6.4980     1.0510    -0.6440 oh         1 5KF      -0.664000
     22 C22         -1.9040     0.5030     0.8920 c6         1 5KF      -0.040200
     23 C23          2.1550     1.4660    -0.9020 ca         1 5KF      -0.060500
     24 C24          3.4450     1.8720    -1.2050 ca         1 5KF      -0.179000
     25 H1           6.4240     1.2830    -0.3140 ho         1 5KF       0.464000
     26 H2           5.1230    -0.1040     0.9800 ha         1 5KF       0.120500
     27 H3           2.8400    -0.8200     1.4800 ha         1 5KF       0.117250
     28 H5          -0.5130    -1.7070     2.1990 ha         1 5KF       0.117250
     29 H6          -0.7890    -4.1320     1.9740 ha         1 5KF       0.120500
     30 H7           0.1740    -5.8700    -0.9350 ho         1 5KF       0.464000
     31 H8           0.8860    -3.9390    -1.9700 ha         1 5KF       0.120500
     32 H9           1.1630    -1.5240    -1.7310 ha         1 5KF       0.117250
     33 H11         -0.5340     2.5230     2.0950 hc         1 5KF       0.051700
     34 H12          0.8070     2.6400     0.9730 hc         1 5KF       0.051700
     35 H13         -0.9750     4.2860     0.4340 hc         1 5KF       0.040200
     36 H14         -0.7880     3.1390    -0.8790 hc         1 5KF       0.040200
     37 H15         -2.9420     3.0770     1.2870 hc         1 5KF       0.039200
     38 H16         -3.1740     3.4660    -0.4080 hc         1 5KF       0.039200
     39 H17         -2.5050     1.1740    -1.0480 hc         1 5KF       0.049700
     40 H18         -4.3310    -0.1410    -0.0050 hc         1 5KF       0.053700
     41 H19         -4.5750     1.1210     1.1930 hc         1 5KF       0.053700
     42 H20         -5.2490     2.7070    -0.5850 h1         1 5KF       0.016200
     43 H21         -4.8480     1.5170    -1.8220 h1         1 5KF       0.016200
     44 H22         -7.1030     1.5050    -1.2370 ho         1 5KF       0.441000
     45 H23         -2.0660    -0.5460     0.6470 hc         1 5KF       0.052200
     46 H24         -2.2240     0.6380     1.9330 hc         1 5KF       0.052200
     47 H25          1.3290     1.8990    -1.4510 ha         1 5KF       0.117250
     48 H26          3.6150     2.6160    -1.9740 ha         1 5KF       0.120500
@<TRIPOS>BOND
     1     1     2 1   
     2     1    25 1   
     3     2     3 ar  
     4     2    24 ar  
     5     3     4 ar  
     6     3    26 1   
     7     4     5 ar  
     8     4    27 1   
     9     5     6 1   
    10     5    23 ar  
    11     6     7 1   
    12     6    14 2   
    13     7     8 ar  
    14     7    13 ar  
    15     8     9 ar  
    16     8    28 1   
    17     9    10 ar  
    18     9    29 1   
    19    10    11 1   
    20    10    12 ar  
    21    11    30 1   
    22    12    13 ar  
    23    12    31 1   
    24    13    32 1   
    25    14    15 1   
    26    14    22 1   
    27    15    16 1   
    28    15    33 1   
    29    15    34 1   
    30    16    17 1   
    31    16    35 1   
    32    16    36 1   
    33    17    18 1   
    34    17    37 1   
    35    17    38 1   
    36    18    19 1   
    37    18    22 1   
    38    18    39 1   
    39    19    20 1   
    40    19    40 1   
    41    19    41 1   
    42    20    21 1   
    43    20    42 1   
    44    20    43 1   
    45    21    44 1   
    46    22    45 1   
    47    22    46 1   
    48    23    24 ar  
    49    23    47 1   
    50    24    48 1   
@<TRIPOS>SUBSTRUCTURE
     1 5KF         1 TEMP              0 ****  ****    0 ROOT
