@<TRIPOS>MOLECULE
5KF
   48    50     1     0     0
SMALL
No Charge or Current Charge


@<TRIPOS>ATOM
      1 O01          5.9100     1.6550    -0.6730 oh         1 5KF      -0.534100
      2 C02          4.6280     1.2730    -0.4170 ca         1 5KF       0.139100
      3 C03          4.3490     0.3890     0.6380 ca         1 5KF      -0.179000
      4 C04          3.0230    -0.0010     0.8960 ca         1 5KF      -0.060500
      5 C05          1.9700     0.4970     0.1050 ca         1 5KF      -0.084300
      6 C06          0.5680     0.0610     0.3690 ce         1 5KF      -0.008400
      7 C07          0.3560    -1.4060     0.2090 ca         1 5KF      -0.084300
      8 C08         -0.0530    -2.1940     1.3030 ca         1 5KF      -0.060500
      9 C09         -0.2320    -3.5800     1.1490 ca         1 5KF      -0.179000
     10 C10          0.0040    -4.1850    -0.0940 ca         1 5KF       0.139100
     11 O11         -0.1710    -5.5290    -0.2330 oh         1 5KF      -0.534100
     12 C12          0.4250    -3.4080    -1.1850 ca         1 5KF      -0.179000
     13 C13          0.6040    -2.0220    -1.0330 ca         1 5KF      -0.060500
     14 C14         -0.4270     0.9250     0.7190 c2         1 5KF      -0.084400
     15 C15         -0.2160     2.4230     0.9590 c6         1 5KF      -0.045200
     16 C16         -1.1340     3.2640     0.0450 c6         1 5KF      -0.070400
     17 C17         -2.6190     2.8710     0.2360 c6         1 5KF      -0.074400
     18 C18         -2.8430     1.3480     0.0040 c6         1 5KF      -0.057700
     19 C19         -4.3290     0.9210     0.2170 c3         1 5KF      -0.080400
     20 C20         -5.3460     1.5740    -0.7430 c3         1 5KF       0.164600
     21 O21         -6.6490     1.0280    -0.5110 oh         1 5KF      -0.664000
     22 C22         -1.8920     0.5140     0.9090 c6         1 5KF      -0.040200
     23 C23          2.2580     1.3730    -0.9600 ca         1 5KF      -0.060500
     24 C24          3.5850     1.7630    -1.2160 ca         1 5KF      -0.179000
     25 H1           6.4990     1.2180    -0.0220 ho         1 5KF       0.464000
     26 H2           5.1520    -0.0000     1.2600 ha         1 5KF       0.120500
     27 H3           2.8100    -0.6890     1.7120 ha         1 5KF       0.117250
     28 H5          -0.2300    -1.7300     2.2710 ha         1 5KF       0.117250
     29 H6          -0.5520    -4.1840     1.9950 ha         1 5KF       0.120500
     30 H7           0.0400    -5.7740    -1.1600 ho         1 5KF       0.464000
     31 H8           0.6150    -3.8700    -2.1510 ha         1 5KF       0.120500
     32 H9           0.9320    -1.4230    -1.8800 ha         1 5KF       0.117250
     33 H11         -0.4440     2.6500     2.0100 hc         1 5KF       0.051700
     34 H12          0.8270     2.7280     0.8160 hc         1 5KF       0.051700
     35 H13         -0.9990     4.3320     0.2610 hc         1 5KF       0.040200
     36 H14         -0.8430     3.1160    -1.0040 hc         1 5KF       0.040200
     37 H15         -2.9440     3.1460     1.2490 hc         1 5KF       0.039200
     38 H16         -3.2320     3.4600    -0.4590 hc         1 5KF       0.039200
     39 H17         -2.6000     1.1180    -1.0430 hc         1 5KF       0.049700
     40 H18         -4.4080    -0.1670     0.0990 hc         1 5KF       0.053700
     41 H19         -4.6320     1.1380     1.2480 hc         1 5KF       0.053700
     42 H20         -5.3610     2.6600    -0.5840 h1         1 5KF       0.016200
     43 H21         -5.0370     1.3870    -1.7800 h1         1 5KF       0.016200
     44 H22         -7.2590     1.4690    -1.1430 ho         1 5KF       0.441000
     45 H23         -2.0450    -0.5490     0.6880 hc         1 5KF       0.052200
     46 H24         -2.1680     0.6470     1.9650 hc         1 5KF       0.052200
     47 H25          1.4530     1.7490    -1.5880 ha         1 5KF       0.117250
     48 H26          3.8020     2.4420    -2.0360 ha         1 5KF       0.120500
@<TRIPOS>BOND
     1     1     2 1   
     2     1    25 1   
     3     2     3 ar  
     4     2    24 ar  
     5     3     4 ar  
     6     3    26 1   
     7     4     5 ar  
     8     4    27 1   
     9     5     6 1   
    10     5    23 ar  
    11     6     7 1   
    12     6    14 2   
    13     7     8 ar  
    14     7    13 ar  
    15     8     9 ar  
    16     8    28 1   
    17     9    10 ar  
    18     9    29 1   
    19    10    11 1   
    20    10    12 ar  
    21    11    30 1   
    22    12    13 ar  
    23    12    31 1   
    24    13    32 1   
    25    14    15 1   
    26    14    22 1   
    27    15    16 1   
    28    15    33 1   
    29    15    34 1   
    30    16    17 1   
    31    16    35 1   
    32    16    36 1   
    33    17    18 1   
    34    17    37 1   
    35    17    38 1   
    36    18    19 1   
    37    18    22 1   
    38    18    39 1   
    39    19    20 1   
    40    19    40 1   
    41    19    41 1   
    42    20    21 1   
    43    20    42 1   
    44    20    43 1   
    45    21    44 1   
    46    22    45 1   
    47    22    46 1   
    48    23    24 ar  
    49    23    47 1   
    50    24    48 1   
@<TRIPOS>SUBSTRUCTURE
     1 5KF         1 TEMP              0 ****  ****    0 ROOT
