@<TRIPOS>MOLECULE
5KG
   48    50     1     0     0
SMALL
No Charge or Current Charge


@<TRIPOS>ATOM
      1 C01          2.3000     1.1200     1.0510 ca         1 5KG      -0.060250
      2 C02          3.3020     2.0770     1.2910 ca         1 5KG      -0.178750
      3 C03          3.6920     2.9550     0.2670 ca         1 5KG       0.139100
      4 O01          4.6630     3.8840     0.4910 oh         1 5KG      -0.533600
      5 C04          3.0860     2.8750    -0.9950 ca         1 5KG      -0.178750
      6 C05          2.0840     1.9190    -1.2370 ca         1 5KG      -0.060250
      7 C06          1.6780     1.0430    -0.2100 ca         1 5KG      -0.083800
      8 C07          0.6320     0.0110    -0.4640 ce         1 5KG      -0.007400
      9 C08          1.1110    -1.3880    -0.2820 ca         1 5KG      -0.083800
     10 C09          0.5550    -2.2120     0.7170 ca         1 5KG      -0.060250
     11 C10          1.0260    -3.5240     0.8980 ca         1 5KG      -0.178750
     12 C11          2.0620    -4.0150     0.0870 ca         1 5KG       0.139100
     13 O02          2.5250    -5.2850     0.2570 oh         1 5KG      -0.533600
     14 C12          2.6290    -3.1950    -0.8990 ca         1 5KG      -0.178750
     15 C13          2.1590    -1.8830    -1.0820 ca         1 5KG      -0.060250
     16 C14         -0.6470     0.3190    -0.8250 c2         1 5KG      -0.086400
     17 C15         -1.1870     1.7490    -0.9320 c6         1 5KG      -0.043200
     18 C16         -2.4480     1.9350    -0.0530 c6         1 5KG      -0.068900
     19 C17         -1.7180    -0.7220    -1.1620 c6         1 5KG      -0.043200
     20 C18         -2.9720    -0.5500    -0.2730 c6         1 5KG      -0.068900
     21 C19         -3.5500     0.8910    -0.3840 c6         1 5KG      -0.061700
     22 C20         -4.8050     1.1050     0.5180 c3         1 5KG      -0.079400
     23 C21         -6.0220     0.2190     0.1740 c3         1 5KG       0.163600
     24 O03         -7.1320     0.5790     1.0040 oh         1 5KG      -0.663000
     25 H1           2.0020     0.4390     1.8450 ha         1 5KG       0.117250
     26 H2           3.7700     2.1280     2.2710 ha         1 5KG       0.120500
     27 H3           4.9700     3.7940     1.4190 ho         1 5KG       0.464000
     28 H4           3.3930     3.5520    -1.7890 ha         1 5KG       0.120500
     29 H5           1.6230     1.8560    -2.2200 ha         1 5KG       0.117250
     30 H7          -0.2430    -1.8310     1.3510 ha         1 5KG       0.117250
     31 H8           0.5840    -4.1500     1.6700 ha         1 5KG       0.120500
     32 H9           2.0180    -5.7050     0.9840 ho         1 5KG       0.464000
     33 H10          3.4350    -3.5740    -1.5230 ha         1 5KG       0.120500
     34 H11          2.6050    -1.2500    -1.8460 ha         1 5KG       0.117250
     35 H13         -0.4420     2.4940    -0.6270 hc         1 5KG       0.051200
     36 H14         -1.4300     1.9690    -1.9800 hc         1 5KG       0.051200
     37 H15         -2.1650     1.8520     1.0060 hc         1 5KG       0.041700
     38 H16         -2.8400     2.9520    -0.1900 hc         1 5KG       0.041700
     39 H17         -2.0040    -0.6070    -2.2160 hc         1 5KG       0.051200
     40 H18         -1.3440    -1.7490    -1.0750 hc         1 5KG       0.051200
     41 H19         -3.7240    -1.2910    -0.5740 hc         1 5KG       0.041700
     42 H20         -2.7130    -0.7710     0.7720 hc         1 5KG       0.041700
     43 H21         -3.8800     1.0560    -1.4200 hc         1 5KG       0.044700
     44 H22         -4.5380     0.9390     1.5690 hc         1 5KG       0.053200
     45 H23         -5.1220     2.1530     0.4450 hc         1 5KG       0.053200
     46 H24         -6.2820     0.3540    -0.8840 h1         1 5KG       0.015700
     47 H25         -5.7670    -0.8370     0.3290 h1         1 5KG       0.015700
     48 H26         -7.8800    -0.0060     0.7480 ho         1 5KG       0.442000
@<TRIPOS>BOND
     1     1     2 ar  
     2     1     7 ar  
     3     1    25 1   
     4     2     3 ar  
     5     2    26 1   
     6     3     4 1   
     7     3     5 ar  
     8     4    27 1   
     9     5     6 ar  
    10     5    28 1   
    11     6     7 ar  
    12     6    29 1   
    13     7     8 1   
    14     8     9 1   
    15     8    16 2   
    16     9    10 ar  
    17     9    15 ar  
    18    10    11 ar  
    19    10    30 1   
    20    11    12 ar  
    21    11    31 1   
    22    12    13 1   
    23    12    14 ar  
    24    13    32 1   
    25    14    15 ar  
    26    14    33 1   
    27    15    34 1   
    28    16    17 1   
    29    16    19 1   
    30    17    18 1   
    31    17    35 1   
    32    17    36 1   
    33    18    21 1   
    34    18    37 1   
    35    18    38 1   
    36    19    20 1   
    37    19    39 1   
    38    19    40 1   
    39    20    21 1   
    40    20    41 1   
    41    20    42 1   
    42    21    22 1   
    43    21    43 1   
    44    22    23 1   
    45    22    44 1   
    46    22    45 1   
    47    23    24 1   
    48    23    46 1   
    49    23    47 1   
    50    24    48 1   
@<TRIPOS>SUBSTRUCTURE
     1 5KG         1 TEMP              0 ****  ****    0 ROOT
