@<TRIPOS>MOLECULE
5KG
   48    50     1     0     0
SMALL
bcc


@<TRIPOS>ATOM
      1 C01          2.2940     1.1060     0.9750 ca         1 5KG      -0.078250
      2 C02          3.2830     2.0420     1.2320 ca         1 5KG      -0.196750
      3 C03          3.6510     2.9550     0.2460 ca         1 5KG       0.139100
      4 O01          4.6090     3.8850     0.4340 oh         1 5KG      -0.494600
      5 C04          3.0180     2.9100    -0.9930 ca         1 5KG      -0.196750
      6 C05          2.0270     1.9720    -1.2300 ca         1 5KG      -0.078250
      7 C06          1.6330     1.0580    -0.2520 ca         1 5KG      -0.083800
      8 C07          0.5900     0.0330    -0.5060 ce         1 5KG      -0.007400
      9 C08          1.0370    -1.3630    -0.2690 ca         1 5KG      -0.083800
     10 C09          0.3640    -2.2200     0.5990 ca         1 5KG      -0.078250
     11 C10          0.8070    -3.5140     0.8320 ca         1 5KG      -0.196750
     12 C11          1.9510    -3.9840     0.1950 ca         1 5KG       0.139100
     13 O02          2.4300    -5.2310     0.3760 oh         1 5KG      -0.494600
     14 C12          2.6490    -3.1370    -0.6650 ca         1 5KG      -0.196750
     15 C13          2.1970    -1.8470    -0.8800 ca         1 5KG      -0.078250
     16 C14         -0.6530     0.3450    -0.9130 c2         1 5KG      -0.086400
     17 C15         -1.1900     1.7480    -0.9810 c6         1 5KG      -0.043200
     18 C16         -2.4040     1.8820    -0.0550 c6         1 5KG      -0.068900
     19 C17         -1.7060    -0.6630    -1.2830 c6         1 5KG      -0.043200
     20 C18         -2.9280    -0.5490    -0.3690 c6         1 5KG      -0.068900
     21 C19         -3.5020     0.8680    -0.3700 c6         1 5KG      -0.061700
     22 C20         -4.6750     1.0300     0.5950 c3         1 5KG      -0.079400
     23 C21         -5.8800     0.1810     0.2360 c3         1 5KG       0.140400
     24 O03         -6.9420     0.5060     1.1100 oh         1 5KG      -0.600800
     25 H1           2.0300     0.4000     1.7540 ha         1 5KG       0.135250
     26 H2           3.7680     2.0590     2.2020 ha         1 5KG       0.138500
     27 H3           4.9700     3.8190     1.3250 ho         1 5KG       0.425000
     28 H4           3.3080     3.6060    -1.7710 ha         1 5KG       0.138500
     29 H5           1.5530     1.9460    -2.2040 ha         1 5KG       0.135250
     30 H7          -0.5200    -1.8710     1.1180 ha         1 5KG       0.135250
     31 H8           0.2610    -4.1530     1.5170 ha         1 5KG       0.138500
     32 H9           1.8770    -5.7160     0.9990 ho         1 5KG       0.425000
     33 H10          3.5450    -3.4910    -1.1590 ha         1 5KG       0.138500
     34 H11          2.7570    -1.2010    -1.5450 ha         1 5KG       0.135250
     35 H13         -0.4400     2.4900    -0.7110 hc         1 5KG       0.051200
     36 H14         -1.5010     1.9700    -2.0090 hc         1 5KG       0.051200
     37 H15         -2.0740     1.7520     0.9820 hc         1 5KG       0.041700
     38 H16         -2.8070     2.8960    -0.1290 hc         1 5KG       0.041700
     39 H17         -2.0270    -0.4480    -2.3100 hc         1 5KG       0.051200
     40 H18         -1.3220    -1.6820    -1.2840 hc         1 5KG       0.051200
     41 H19         -3.6840    -1.2700    -0.6890 hc         1 5KG       0.041700
     42 H20         -2.6460    -0.8220     0.6540 hc         1 5KG       0.041700
     43 H21         -3.8640     1.0800    -1.3870 hc         1 5KG       0.044700
     44 H22         -4.3430     0.7890     1.6110 hc         1 5KG       0.053200
     45 H23         -4.9820     2.0820     0.6040 hc         1 5KG       0.053200
     46 H24         -6.1530     0.3710    -0.8120 h1         1 5KG       0.015700
     47 H25         -5.6270    -0.8840     0.3070 h1         1 5KG       0.015700
     48 H26         -7.6890    -0.0590     0.8940 ho         1 5KG       0.403000
@<TRIPOS>BOND
     1     1     2 ar  
     2     1     7 ar  
     3     1    25 1   
     4     2     3 ar  
     5     2    26 1   
     6     3     4 1   
     7     3     5 ar  
     8     4    27 1   
     9     5     6 ar  
    10     5    28 1   
    11     6     7 ar  
    12     6    29 1   
    13     7     8 1   
    14     8     9 1   
    15     8    16 2   
    16     9    10 ar  
    17     9    15 ar  
    18    10    11 ar  
    19    10    30 1   
    20    11    12 ar  
    21    11    31 1   
    22    12    13 1   
    23    12    14 ar  
    24    13    32 1   
    25    14    15 ar  
    26    14    33 1   
    27    15    34 1   
    28    16    17 1   
    29    16    19 1   
    30    17    18 1   
    31    17    35 1   
    32    17    36 1   
    33    18    21 1   
    34    18    37 1   
    35    18    38 1   
    36    19    20 1   
    37    19    39 1   
    38    19    40 1   
    39    20    21 1   
    40    20    41 1   
    41    20    42 1   
    42    21    22 1   
    43    21    43 1   
    44    22    23 1   
    45    22    44 1   
    46    22    45 1   
    47    23    24 1   
    48    23    46 1   
    49    23    47 1   
    50    24    48 1   
@<TRIPOS>SUBSTRUCTURE
     1 5KG         1 TEMP              0 ****  ****    0 ROOT
