@<TRIPOS>MOLECULE
5KH
   52    55     1     0     0
SMALL
No Charge or Current Charge


@<TRIPOS>ATOM
      1 C14         -3.4110    -1.7580    -1.4500 ca         1 5KH      -0.125000
      2 C15         -2.1120    -1.2630    -1.2560 ca         1 5KH      -0.044000
      3 C16         -5.4890     1.4820    -1.4320 c3         1 5KH       0.359300
      4 C10         -1.8910     0.1240    -1.0980 ca         1 5KH      -0.149600
      5 C11         -2.9970     0.9990    -1.1740 ca         1 5KH      -0.016000
      6 C12         -4.3080     0.5080    -1.3590 ca         1 5KH      -0.205300
      7 C13         -4.5060    -0.8810    -1.4990 ca         1 5KH      -0.042000
      8 C01          4.3340     1.9630    -3.4190 c3         1 5KH      -0.180100
      9 O03          6.0070     1.5930    -1.7640 o          1 5KH      -0.536100
     10 N04          3.8580     0.9640    -1.1310 n          1 5KH      -0.092600
     11 C05          2.4880     0.8200    -1.3850 cc         1 5KH      -0.114400
     12 C06          1.8600     0.2590    -0.2930 cd         1 5KH       0.016400
     13 N07          0.4910    -0.0790    -0.2610 n          1 5KH      -0.143600
     14 C08         -0.5050     0.7090    -0.9010 c          1 5KH       0.621700
     15 O09         -0.2520     1.8250    -1.3460 o          1 5KH      -0.554100
     16 F17         -6.6690     0.8940    -1.1290 f          1 5KH      -0.112000
     17 F18         -5.3450     2.5200    -0.5770 f          1 5KH      -0.112000
     18 F19         -5.6160     2.0060    -2.6720 f          1 5KH      -0.112000
     19 C20          0.2000    -1.1090     0.7020 ca         1 5KH      -0.003000
     20 C21          0.7060    -2.4290     0.5660 ca         1 5KH      -0.108300
     21 C22          1.5920    -2.8410    -0.6090 c3         1 5KH      -0.036800
     22 C23          0.3720    -3.3990     1.5320 ca         1 5KH      -0.062000
     23 C24         -0.4680    -3.0750     2.6100 ca         1 5KH      -0.203000
     24 C25         -0.9860    -1.7790     2.7280 ca         1 5KH       0.149100
     25 C26         -0.6580    -0.8030     1.7790 ca         1 5KH      -0.159000
     26 O27         -1.8070    -1.4620     3.7670 oh         1 5KH      -0.528100
     27 C28          2.8900     0.0480     0.7430 ca         1 5KH      -0.096800
     28 C29          4.0990     0.4810     0.2010 ca         1 5KH      -0.075000
     29 C30          5.2940     0.4270     0.9430 ca         1 5KH      -0.100000
     30 C31          5.2450    -0.0730     2.2580 ca         1 5KH      -0.096000
     31 C32          4.0200    -0.4950     2.8180 ca         1 5KH      -0.127000
     32 C33          2.8290    -0.4310     2.0680 ca         1 5KH      -0.063000
     33 H1          -3.5690    -2.8270    -1.5730 ha         1 5KH       0.124000
     34 H2          -1.2850    -1.9660    -1.2590 ha         1 5KH       0.127000
     35 H3          -2.8360     2.0720    -1.0780 ha         1 5KH       0.146000
     36 H4          -5.5030    -1.2880    -1.6580 ha         1 5KH       0.131000
     37 H5           3.8250     1.1340    -3.9220 hc         1 5KH       0.071700
     38 H6           3.5360     2.7030    -3.2900 hc         1 5KH       0.071700
     39 H7           5.1500     2.3600    -4.0350 hc         1 5KH       0.071700
     40 H8           2.0930     1.1140    -2.3500 h4         1 5KH       0.222000
     41 H9           1.2880    -2.3470    -1.5400 hc         1 5KH       0.043033
     42 H10          2.6410    -2.5860    -0.4190 hc         1 5KH       0.043033
     43 H11          1.5430    -3.9210    -0.7890 hc         1 5KH       0.043033
     44 H12          0.7590    -4.4120     1.4440 ha         1 5KH       0.116000
     45 H13         -0.7160    -3.8390     3.3440 ha         1 5KH       0.118000
     46 H14         -1.0640     0.1990     1.8870 ha         1 5KH       0.139000
     47 H15         -1.9240    -2.2620     4.3230 ho         1 5KH       0.468000
     48 H16          6.2420     0.7610     0.5320 ha         1 5KH       0.143000
     49 H17          6.1560    -0.1240     2.8510 ha         1 5KH       0.114000
     50 H18          3.9930    -0.8660     3.8390 ha         1 5KH       0.114000
     51 H19          1.9000    -0.7390     2.5310 ha         1 5KH       0.122000
     52 C02          4.8170     1.4970    -2.0430 c          1 5KH       0.623100
@<TRIPOS>BOND
     1     1     2 ar  
     2     1     7 ar  
     3     1    33 1   
     4     2     4 ar  
     5     2    34 1   
     6     3     6 1   
     7     3    16 1   
     8     3    17 1   
     9     3    18 1   
    10     4     5 ar  
    11     4    14 1   
    12     5     6 ar  
    13     5    35 1   
    14     6     7 ar  
    15     7    36 1   
    16     8    37 1   
    17     8    38 1   
    18     8    39 1   
    19     8    52 1   
    20     9    52 2   
    21    10    11 1   
    22    10    28 1   
    23    10    52 1   
    24    11    12 2   
    25    11    40 1   
    26    12    13 1   
    27    12    27 1   
    28    13    14 1   
    29    13    19 1   
    30    14    15 2   
    31    19    20 ar  
    32    19    25 ar  
    33    20    21 1   
    34    20    22 ar  
    35    21    41 1   
    36    21    42 1   
    37    21    43 1   
    38    22    23 ar  
    39    22    44 1   
    40    23    24 ar  
    41    23    45 1   
    42    24    25 ar  
    43    24    26 1   
    44    25    46 1   
    45    26    47 1   
    46    27    28 ar  
    47    27    32 ar  
    48    28    29 ar  
    49    29    30 ar  
    50    29    48 1   
    51    30    31 ar  
    52    30    49 1   
    53    31    32 ar  
    54    31    50 1   
    55    32    51 1   
@<TRIPOS>SUBSTRUCTURE
     1 5KH         1 TEMP              0 ****  ****    0 ROOT
