@<TRIPOS>MOLECULE
5KH
   52    55     1     0     0
SMALL
abcg2


@<TRIPOS>ATOM
      1 C14         -3.3870    -1.4600    -1.7630 ca         1 5KH      -0.125000
      2 C15         -2.0710    -1.0720    -1.5690 ca         1 5KH      -0.044000
      3 C16         -5.2680     1.5140    -0.4200 c3         1 5KH       0.359300
      4 C10         -1.7870     0.1630    -0.9980 ca         1 5KH      -0.149600
      5 C11         -2.8260     1.0110    -0.6320 ca         1 5KH      -0.016000
      6 C12         -4.1410     0.6050    -0.7990 ca         1 5KH      -0.205300
      7 C13         -4.4250    -0.6310    -1.3700 ca         1 5KH      -0.042000
      8 C01          4.7150     0.7380    -3.3910 c3         1 5KH      -0.180100
      9 O03          6.0900     1.2850    -1.5170 o          1 5KH      -0.536100
     10 N04          3.9500     0.7220    -1.0570 n          1 5KH      -0.092600
     11 C05          2.6780     0.3230    -1.4340 cc         1 5KH      -0.114400
     12 C06          1.8980     0.1860    -0.3410 cd         1 5KH       0.016400
     13 N07          0.5420    -0.1970    -0.3440 n          1 5KH      -0.143600
     14 C08         -0.3890     0.6690    -0.8580 c          1 5KH       0.621700
     15 O09         -0.1010     1.7930    -1.2180 o          1 5KH      -0.554100
     16 F17         -6.2880     0.8430     0.1290 f          1 5KH      -0.112000
     17 F18         -4.8960     2.4510     0.4570 f          1 5KH      -0.112000
     18 F19         -5.7640     2.1550    -1.4890 f          1 5KH      -0.112000
     19 C20          0.1870    -1.3430     0.4300 ca         1 5KH      -0.003000
     20 C21          0.6560    -2.6070     0.0640 ca         1 5KH      -0.108300
     21 C22          1.4900    -2.8410    -1.1600 c3         1 5KH      -0.036800
     22 C23          0.2860    -3.6720     0.8790 ca         1 5KH      -0.062000
     23 C24         -0.5150    -3.5110     1.9980 ca         1 5KH      -0.203000
     24 C25         -0.9760    -2.2440     2.3370 ca         1 5KH       0.149100
     25 C26         -0.6110    -1.1580     1.5510 ca         1 5KH      -0.159000
     26 O27         -1.7580    -2.0080     3.4090 oh         1 5KH      -0.528100
     27 C28          2.6990     0.5070     0.8110 ca         1 5KH      -0.096800
     28 C29          3.9820     0.8330     0.3350 ca         1 5KH      -0.075000
     29 C30          5.0070     1.1960     1.2040 ca         1 5KH      -0.100000
     30 C31          4.7170     1.2250     2.5580 ca         1 5KH      -0.096000
     31 C32          3.4450     0.9100     3.0430 ca         1 5KH      -0.127000
     32 C33          2.4280     0.5490     2.1780 ca         1 5KH      -0.063000
     33 H1          -3.6060    -2.4160    -2.2190 ha         1 5KH       0.124000
     34 H2          -1.2730    -1.7320    -1.8840 ha         1 5KH       0.127000
     35 H3          -2.5920     1.9760    -0.2030 ha         1 5KH       0.146000
     36 H4          -5.4470    -0.9560    -1.5160 ha         1 5KH       0.131000
     37 H5           4.4210    -0.2930    -3.5900 hc         1 5KH       0.071700
     38 H6           3.9080     1.3860    -3.7330 hc         1 5KH       0.071700
     39 H7           5.6070     0.9620    -3.9680 hc         1 5KH       0.071700
     40 H8           2.4180     0.1630    -2.4670 h4         1 5KH       0.222000
     41 H9           1.1250    -2.2790    -2.0210 hc         1 5KH       0.043033
     42 H10          2.5310    -2.5530    -1.0100 hc         1 5KH       0.043033
     43 H11          1.4790    -3.8970    -1.4280 hc         1 5KH       0.043033
     44 H12          0.6240    -4.6690     0.6220 ha         1 5KH       0.116000
     45 H13         -0.7820    -4.3730     2.5990 ha         1 5KH       0.118000
     46 H14         -0.9470    -0.1650     1.8220 ha         1 5KH       0.139000
     47 H15         -1.9260    -2.8280     3.8870 ho         1 5KH       0.468000
     48 H16          5.9940     1.4500     0.8540 ha         1 5KH       0.143000
     49 H17          5.4980     1.5020     3.2530 ha         1 5KH       0.114000
     50 H18          3.2550     0.9480     4.1080 ha         1 5KH       0.114000
     51 H19          1.4460     0.3050     2.5580 ha         1 5KH       0.122000
     52 C02          5.0080     0.9460    -1.9330 c          1 5KH       0.623100
@<TRIPOS>BOND
     1     1     2 ar  
     2     1     7 ar  
     3     1    33 1   
     4     2     4 ar  
     5     2    34 1   
     6     3     6 1   
     7     3    16 1   
     8     3    17 1   
     9     3    18 1   
    10     4     5 ar  
    11     4    14 1   
    12     5     6 ar  
    13     5    35 1   
    14     6     7 ar  
    15     7    36 1   
    16     8    37 1   
    17     8    38 1   
    18     8    39 1   
    19     8    52 1   
    20     9    52 2   
    21    10    11 1   
    22    10    28 1   
    23    10    52 1   
    24    11    12 2   
    25    11    40 1   
    26    12    13 1   
    27    12    27 1   
    28    13    14 1   
    29    13    19 1   
    30    14    15 2   
    31    19    20 ar  
    32    19    25 ar  
    33    20    21 1   
    34    20    22 ar  
    35    21    41 1   
    36    21    42 1   
    37    21    43 1   
    38    22    23 ar  
    39    22    44 1   
    40    23    24 ar  
    41    23    45 1   
    42    24    25 ar  
    43    24    26 1   
    44    25    46 1   
    45    26    47 1   
    46    27    28 ar  
    47    27    32 ar  
    48    28    29 ar  
    49    29    30 ar  
    50    29    48 1   
    51    30    31 ar  
    52    30    49 1   
    53    31    32 ar  
    54    31    50 1   
    55    32    51 1   
@<TRIPOS>SUBSTRUCTURE
     1 5KH         1 TEMP              0 ****  ****    0 ROOT
