@<TRIPOS>MOLECULE
5KI
   78    81     1     0     0
SMALL
abcg2


@<TRIPOS>ATOM
      1 C4          25.8720   -24.5680   -46.1300 ca         1 5KI      -0.134000
      2 C14         31.5430   -19.8450   -46.8510 c2         1 5KI       0.017400
      3 C5          25.4710   -24.9710   -44.8640 ca         1 5KI      -0.006000
      4 C6          25.6070   -26.3010   -44.4890 ca         1 5KI       0.064000
      5 C11         29.9240   -22.6000   -48.2460 ce         1 5KI      -0.143000
      6 C7          26.9270   -25.0170   -48.3590 c3         1 5KI       0.000100
      7 C8          28.3480   -24.5240   -48.2390 c2         1 5KI      -0.080400
      8 C9          29.3630   -25.5730   -47.9060 c3         1 5KI      -0.061900
      9 C10         28.6220   -23.2190   -48.4030 ce         1 5KI      -0.194000
     10 C12         30.1540   -21.2870   -48.3500 c2         1 5KI      -0.252200
     11 C13         31.5110   -20.7080   -48.0910 c3         1 5KI       0.241700
     12 C3          26.4120   -25.4850   -47.0210 ca         1 5KI      -0.034300
     13 C1          26.1190   -27.2460   -45.3850 ca         1 5KI       0.156100
     14 C17         32.9610   -18.2760   -45.6790 c          1 5KI       0.710100
     15 C19         30.7640   -18.8050   -44.7980 c6         1 5KI       0.241500
     16 C2          26.5170   -26.8200   -46.6490 ca         1 5KI      -0.192000
     17 C20         30.5210   -19.5910   -46.0420 c2         1 5KI      -0.321200
     18 C22         30.9460   -19.7050   -43.5630 c3         1 5KI      -0.071700
     19 C23         29.5980   -20.2980   -43.2290 cx         1 5KI       0.099300
     20 C24         31.4600   -18.9340   -42.3480 c3         1 5KI      -0.083100
     21 C25         29.0930   -21.6180   -43.6300 cx         1 5KI       0.083000
     22 C26         27.5790   -21.7620   -43.6810 c3         1 5KI       0.191300
     23 C27         27.0790   -23.1490   -43.3080 c3         1 5KI      -0.155400
     24 C28         25.5640   -23.1410   -43.2440 c          1 5KI       0.612100
     25 C36         26.6850   -29.5010   -45.8300 c3         1 5KI       0.146900
     26 C38         29.8840   -22.5950   -44.4560 c3         1 5KI      -0.075100
     27 C40         26.2710   -20.2780   -46.8060 c3         1 5KI      -0.156100
     28 N16         32.7930   -19.3050   -46.5510 ns         1 5KI      -0.444100
     29 N31         24.8730   -24.0500   -43.9720 n          1 5KI      -0.240400
     30 O15         32.0740   -20.0300   -49.1960 os         1 5KI      -0.446000
     31 O18         31.8930   -17.9320   -44.9600 os         1 5KI      -0.435100
     32 O21         33.9930   -17.6610   -45.5560 o          1 5KI      -0.528000
     33 O29         29.5640   -21.3800   -42.3110 op         1 5KI      -0.425000
     34 O30         27.1360   -21.5140   -45.0210 os         1 5KI      -0.463100
     35 O32         24.9810   -22.3320   -42.5380 o          1 5KI      -0.589100
     36 O34         26.1920   -28.5080   -44.9480 os         1 5KI      -0.321100
     37 O41         26.5500   -19.3920   -44.5910 o          1 5KI      -0.471000
     38 CL33        25.1430   -26.8010   -42.9080 cl         1 5KI      -0.160000
     39 H1          25.7620   -23.5300   -46.4140 ha         1 5KI       0.132000
     40 H2          30.7620   -23.2410   -47.9900 ha         1 5KI       0.173000
     41 H3          26.2880   -24.2190   -48.7410 hc         1 5KI       0.059200
     42 H4          26.8840   -25.8420   -49.0760 hc         1 5KI       0.059200
     43 H5          29.2690   -26.4220   -48.5880 hc         1 5KI       0.046033
     44 H6          30.3890   -25.2190   -47.9590 hc         1 5KI       0.046033
     45 H7          29.2020   -25.9660   -46.8990 hc         1 5KI       0.046033
     46 H8          27.8040   -22.5480   -48.6480 ha         1 5KI       0.170000
     47 H9          29.3410   -20.6100   -48.5970 ha         1 5KI       0.178000
     48 H10         32.2000   -21.5420   -47.9070 h1         1 5KI       0.085700
     49 H11         29.9280   -18.1240   -44.6100 h1         1 5KI       0.093700
     50 H12         26.9220   -27.5290   -47.3600 ha         1 5KI       0.122000
     51 H13         29.5340   -19.9720   -46.2490 ha         1 5KI       0.205000
     52 H14         31.6600   -20.4970   -43.8080 hc         1 5KI       0.067700
     53 H15         28.8460   -19.5310   -43.0290 h1         1 5KI       0.097700
     54 H16         31.5020   -19.5890   -41.4780 hc         1 5KI       0.047700
     55 H17         32.4640   -18.5460   -42.5080 hc         1 5KI       0.047700
     56 H18         30.8060   -18.0940   -42.1030 hc         1 5KI       0.047700
     57 H19         27.1360   -21.0350   -42.9980 h1         1 5KI       0.102700
     58 H20         27.4770   -23.9050   -43.9810 hc         1 5KI       0.084700
     59 H21         27.4440   -23.3860   -42.3050 hc         1 5KI       0.084700
     60 H22         23.1010   -24.2060   -42.8320 h1         1 5KI       0.047367
     61 H23         22.9910   -23.1340   -44.2370 h1         1 5KI       0.047367
     62 H24         23.0310   -24.8840   -44.4600 h1         1 5KI       0.047367
     63 H25         26.6410   -30.4410   -45.2850 h1         1 5KI       0.045700
     64 H26         26.0710   -29.5840   -46.7300 h1         1 5KI       0.045700
     65 H27         27.7200   -29.3090   -46.1200 h1         1 5KI       0.045700
     66 H28         31.9950   -18.4160   -50.4050 h1         1 5KI       0.037033
     67 H29         30.4010   -19.0480   -49.9780 h1         1 5KI       0.037033
     68 H30         31.3310   -18.1130   -48.7940 h1         1 5KI       0.037033
     69 H31         30.9440   -22.3500   -44.4780 hc         1 5KI       0.051033
     70 H32         29.7860   -23.6050   -44.0550 hc         1 5KI       0.051033
     71 H33         29.5290   -22.6080   -45.4860 hc         1 5KI       0.051033
     72 H34         25.6910   -19.3860   -47.0240 hc         1 5KI       0.067700
     73 H35         27.1760   -20.2600   -47.4160 hc         1 5KI       0.067700
     74 H36         25.7060   -21.1630   -47.0960 hc         1 5KI       0.067700
     75 H37         33.5710   -19.4970   -47.1650 hn         1 5KI       0.346500
     76 C35         23.4200   -24.0640   -43.8640 c3         1 5KI       0.098300
     77 C37         31.4080   -18.8530   -49.5990 c3         1 5KI       0.136900
     78 C39         26.6490   -20.3150   -45.3560 c          1 5KI       0.597100
@<TRIPOS>BOND
     1     1     3 ar  
     2     1    12 ar  
     3     1    39 1   
     4     2    11 1   
     5     2    17 2   
     6     2    28 1   
     7     3     4 ar  
     8     3    29 1   
     9     4    13 ar  
    10     4    38 1   
    11     5     9 1   
    12     5    10 2   
    13     5    40 1   
    14     6     7 1   
    15     6    12 1   
    16     6    41 1   
    17     6    42 1   
    18     7     8 1   
    19     7     9 2   
    20     8    43 1   
    21     8    44 1   
    22     8    45 1   
    23     9    46 1   
    24    10    11 1   
    25    10    47 1   
    26    11    30 1   
    27    11    48 1   
    28    12    16 ar  
    29    13    16 ar  
    30    13    36 1   
    31    14    28 1   
    32    14    31 1   
    33    14    32 2   
    34    15    17 1   
    35    15    18 1   
    36    15    31 1   
    37    15    49 1   
    38    16    50 1   
    39    17    51 1   
    40    18    19 1   
    41    18    20 1   
    42    18    52 1   
    43    19    21 1   
    44    19    33 1   
    45    19    53 1   
    46    20    54 1   
    47    20    55 1   
    48    20    56 1   
    49    21    22 1   
    50    21    26 1   
    51    21    33 1   
    52    22    23 1   
    53    22    34 1   
    54    22    57 1   
    55    23    24 1   
    56    23    58 1   
    57    23    59 1   
    58    24    29 1   
    59    24    35 2   
    60    25    36 1   
    61    25    63 1   
    62    25    64 1   
    63    25    65 1   
    64    26    69 1   
    65    26    70 1   
    66    26    71 1   
    67    27    72 1   
    68    27    73 1   
    69    27    74 1   
    70    27    78 1   
    71    28    75 1   
    72    29    76 1   
    73    30    77 1   
    74    34    78 1   
    75    37    78 2   
    76    60    76 1   
    77    61    76 1   
    78    62    76 1   
    79    66    77 1   
    80    67    77 1   
    81    68    77 1   
@<TRIPOS>SUBSTRUCTURE
     1 5KI         1 TEMP              0 ****  ****    0 ROOT
