@<TRIPOS>MOLECULE
5KI
   78    81     1     0     0
SMALL
No Charge or Current Charge


@<TRIPOS>ATOM
      1 C4          25.8760   -24.6330   -46.1620 ca         1 5KI      -0.134000
      2 C14         31.5950   -19.7830   -46.9440 c2         1 5KI       0.017400
      3 C5          25.2540   -25.0030   -44.9560 ca         1 5KI      -0.006000
      4 C6          25.3510   -26.3400   -44.5080 ca         1 5KI       0.064000
      5 C11         30.0470   -22.5660   -48.2690 ce         1 5KI      -0.143000
      6 C7          27.1420   -25.1870   -48.2950 c3         1 5KI       0.000100
      7 C8          28.5190   -24.5620   -48.1240 c2         1 5KI      -0.080400
      8 C9          29.5310   -25.5300   -47.5230 c3         1 5KI      -0.061900
      9 C10         28.7700   -23.2700   -48.4490 ce         1 5KI      -0.194000
     10 C12         30.2040   -21.2500   -48.5220 c2         1 5KI      -0.252200
     11 C13         31.4900   -20.4670   -48.3150 c3         1 5KI       0.241700
     12 C3          26.5070   -25.5950   -46.9700 ca         1 5KI      -0.034300
     13 C1          25.9900   -27.3130   -45.3070 ca         1 5KI       0.156100
     14 C17         33.2160   -18.5110   -45.5950 c          1 5KI       0.710100
     15 C19         30.8820   -18.7640   -44.8010 c6         1 5KI       0.241500
     16 C2          26.5550   -26.9350   -46.5450 ca         1 5KI      -0.192000
     17 C20         30.5980   -19.4660   -46.1140 c2         1 5KI      -0.321200
     18 C22         30.9810   -19.7750   -43.6050 c3         1 5KI      -0.071700
     19 C23         29.6120   -20.3500   -43.2100 cx         1 5KI       0.099300
     20 C24         31.6340   -19.1510   -42.3410 c3         1 5KI      -0.083100
     21 C25         29.0290   -21.6500   -43.7200 cx         1 5KI       0.083000
     22 C26         27.4890   -21.7890   -43.7550 c3         1 5KI       0.191300
     23 C27         26.9620   -23.1680   -43.3090 c3         1 5KI      -0.155400
     24 C28         25.4290   -23.1560   -43.2470 c          1 5KI       0.612100
     25 C36         26.6920   -29.6710   -45.5810 c3         1 5KI       0.146900
     26 C38         29.7850   -22.5260   -44.7210 c3         1 5KI      -0.075100
     27 C40         26.4010   -20.2720   -47.0060 c3         1 5KI      -0.156100
     28 N16         32.8870   -19.3850   -46.6010 ns         1 5KI      -0.444100
     29 N31         24.6800   -23.9900   -44.1160 n          1 5KI      -0.240400
     30 O15         31.6320   -19.4930   -49.3790 os         1 5KI      -0.446000
     31 O18         32.1330   -18.0420   -44.8910 os         1 5KI      -0.435100
     32 O21         34.3590   -18.1420   -45.3910 o          1 5KI      -0.528000
     33 O29         29.6320   -21.5540   -42.4080 op         1 5KI      -0.425000
     34 O30         27.0170   -21.5780   -45.1010 os         1 5KI      -0.463100
     35 O32         24.8670   -22.4380   -42.4260 o          1 5KI      -0.589100
     36 O34         26.0490   -28.6160   -44.8430 os         1 5KI      -0.321100
     37 O41         27.1730   -19.2920   -44.9320 o          1 5KI      -0.471000
     38 Cl33        24.6870   -26.8030   -42.9340 cl         1 5KI      -0.160000
     39 H1          25.8510   -23.5940   -46.4830 ha         1 5KI       0.132000
     40 H2          30.8920   -23.1380   -47.8820 ha         1 5KI       0.173000
     41 H3          26.4710   -24.4900   -48.8120 hc         1 5KI       0.059200
     42 H4          27.2130   -26.0550   -48.9630 hc         1 5KI       0.059200
     43 H5          29.3380   -26.5620   -47.8410 hc         1 5KI       0.046033
     44 H6          30.5580   -25.3040   -47.8260 hc         1 5KI       0.046033
     45 H7          29.4900   -25.5090   -46.4280 hc         1 5KI       0.046033
     46 H8          27.9620   -22.6700   -48.8680 ha         1 5KI       0.170000
     47 H9          29.3670   -20.6640   -48.8960 ha         1 5KI       0.178000
     48 H10         32.3180   -21.1860   -48.3910 h1         1 5KI       0.085700
     49 H11         30.0850   -18.0370   -44.5790 h1         1 5KI       0.093700
     50 H12         27.0480   -27.6660   -47.1780 ha         1 5KI       0.122000
     51 H13         29.5610   -19.6970   -46.3450 ha         1 5KI       0.205000
     52 H14         31.6400   -20.5950   -43.9110 hc         1 5KI       0.067700
     53 H15         28.9130   -19.5890   -42.8600 h1         1 5KI       0.097700
     54 H16         31.6520   -19.8730   -41.5160 hc         1 5KI       0.047700
     55 H17         32.6710   -18.8520   -42.5320 hc         1 5KI       0.047700
     56 H18         31.0760   -18.2670   -42.0080 hc         1 5KI       0.047700
     57 H19         27.0570   -21.0420   -43.0730 h1         1 5KI       0.102700
     58 H20         27.3340   -23.9510   -43.9720 hc         1 5KI       0.084700
     59 H21         27.3360   -23.3590   -42.2970 hc         1 5KI       0.084700
     60 H22         22.9140   -24.2830   -42.9800 h1         1 5KI       0.047367
     61 H23         22.8270   -22.9670   -44.1900 h1         1 5KI       0.047367
     62 H24         22.7610   -24.6710   -44.7170 h1         1 5KI       0.047367
     63 H25         26.6240   -30.6160   -45.0290 h1         1 5KI       0.045700
     64 H26         26.2110   -29.8130   -46.5580 h1         1 5KI       0.045700
     65 H27         27.7540   -29.4450   -45.7400 h1         1 5KI       0.045700
     66 H28         30.9750   -17.6850   -50.2030 h1         1 5KI       0.037033
     67 H29         29.7500   -18.5400   -49.2490 h1         1 5KI       0.037033
     68 H30         31.0860   -17.6890   -48.4360 h1         1 5KI       0.037033
     69 H31         30.8350   -22.6570   -44.4380 hc         1 5KI       0.051033
     70 H32         29.3520   -23.5270   -44.8090 hc         1 5KI       0.051033
     71 H33         29.7570   -22.0710   -45.7130 hc         1 5KI       0.051033
     72 H34         26.2650   -19.2550   -47.3880 hc         1 5KI       0.067700
     73 H35         27.0920   -20.8480   -47.6280 hc         1 5KI       0.067700
     74 H36         25.4810   -20.8640   -47.0700 hc         1 5KI       0.067700
     75 H37         33.6630   -19.6830   -47.1780 hn         1 5KI       0.346500
     76 C35         23.2060   -23.9770   -43.9920 c3         1 5KI       0.098300
     77 C37         30.8190   -18.3010   -49.3080 c3         1 5KI       0.136900
     78 C39         26.9060   -20.2970   -45.5730 c          1 5KI       0.597100
@<TRIPOS>BOND
     1     1     3 ar  
     2     1    12 ar  
     3     1    39 1   
     4     2    11 1   
     5     2    17 2   
     6     2    28 1   
     7     3     4 ar  
     8     3    29 1   
     9     4    13 ar  
    10     4    38 1   
    11     5     9 1   
    12     5    10 2   
    13     5    40 1   
    14     6     7 1   
    15     6    12 1   
    16     6    41 1   
    17     6    42 1   
    18     7     8 1   
    19     7     9 2   
    20     8    43 1   
    21     8    44 1   
    22     8    45 1   
    23     9    46 1   
    24    10    11 1   
    25    10    47 1   
    26    11    30 1   
    27    11    48 1   
    28    12    16 ar  
    29    13    16 ar  
    30    13    36 1   
    31    14    28 1   
    32    14    31 1   
    33    14    32 2   
    34    15    17 1   
    35    15    18 1   
    36    15    31 1   
    37    15    49 1   
    38    16    50 1   
    39    17    51 1   
    40    18    19 1   
    41    18    20 1   
    42    18    52 1   
    43    19    21 1   
    44    19    33 1   
    45    19    53 1   
    46    20    54 1   
    47    20    55 1   
    48    20    56 1   
    49    21    22 1   
    50    21    26 1   
    51    21    33 1   
    52    22    23 1   
    53    22    34 1   
    54    22    57 1   
    55    23    24 1   
    56    23    58 1   
    57    23    59 1   
    58    24    29 1   
    59    24    35 2   
    60    25    36 1   
    61    25    63 1   
    62    25    64 1   
    63    25    65 1   
    64    26    69 1   
    65    26    70 1   
    66    26    71 1   
    67    27    72 1   
    68    27    73 1   
    69    27    74 1   
    70    27    78 1   
    71    28    75 1   
    72    29    76 1   
    73    30    77 1   
    74    34    78 1   
    75    37    78 2   
    76    60    76 1   
    77    61    76 1   
    78    62    76 1   
    79    66    77 1   
    80    67    77 1   
    81    68    77 1   
@<TRIPOS>SUBSTRUCTURE
     1 5KI         1 TEMP              0 ****  ****    0 ROOT
