@<TRIPOS>MOLECULE
5KJ
   29    28     1     0     0
SMALL
No Charge or Current Charge


@<TRIPOS>ATOM
      1 OA2          7.3050    -2.6350    25.1530 o          1 5KJ      -0.734500
      2 C            8.3940    -3.0170    24.7470 c          1 5KJ       0.684000
      3 OA1          8.5630    -4.1090    24.2200 o          1 5KJ      -0.734500
      4 CA           9.6650    -2.1190    25.0500 c3         1 5KJ       0.019500
      5 N           10.7960    -2.8020    25.7810 n8         1 5KJ      -1.003200
      6 CB          10.1710    -1.4490    23.7430 c3         1 5KJ      -0.048400
      7 CG          11.1770    -0.2900    23.9610 c3         1 5KJ      -0.103400
      8 CD          11.6090     0.3830    22.6420 c3         1 5KJ       0.215800
      9 NE          12.5350     1.5210    22.8370 nh         1 5KJ      -0.820600
     10 C1          11.9640     2.8830    22.7520 c3         1 5KJ       0.213100
     11 CZ          13.8120     1.3290    23.2450 c2         1 5KJ       0.768100
     12 NH1         14.1890     1.6990    24.3890 n2         1 5KJ      -0.863100
     13 NH2         14.6120     0.7070    22.3200 nu         1 5KJ      -0.627900
     14 OH          15.9870     1.2290    22.1710 oh         1 5KJ      -0.433300
     15 H2           9.3130    -1.3120    25.7070 h1         1 5KJ       0.036700
     16 H3          10.4380    -3.1860    26.6640 hn         1 5KJ       0.384000
     17 H4          11.0560    -3.6440    25.2530 hn         1 5KJ       0.384000
     18 H6           9.3030    -1.0520    23.2010 hc         1 5KJ       0.039700
     19 H7          10.6220    -2.2090    23.0920 hc         1 5KJ       0.039700
     20 H8          12.0680    -0.6690    24.4760 hc         1 5KJ       0.045200
     21 H9          10.7220     0.4640    24.6140 hc         1 5KJ       0.045200
     22 H10         10.7040     0.7210    22.1190 h1         1 5KJ       0.047700
     23 H11         12.0790    -0.3710    21.9960 h1         1 5KJ       0.047700
     24 H12         11.9460     3.3560    23.7430 h1         1 5KJ       0.033367
     25 H13         12.5710     3.5060    22.0820 h1         1 5KJ       0.033367
     26 H14         10.9360     2.8660    22.3650 h1         1 5KJ       0.033367
     27 H15         13.3500     2.1000    24.8180 hn         1 5KJ       0.395400
     28 H17         14.1440     0.6830    21.4140 hn         1 5KJ       0.449000
     29 H18         16.5780     0.4440    22.0550 ho         1 5KJ       0.455000
@<TRIPOS>BOND
     1     1     2 1   
     2     2     3 1   
     3     2     4 1   
     4     4     5 1   
     5     4     6 1   
     6     4    15 1   
     7     5    16 1   
     8     5    17 1   
     9     6     7 1   
    10     6    18 1   
    11     6    19 1   
    12     7     8 1   
    13     7    20 1   
    14     7    21 1   
    15     8     9 1   
    16     8    22 1   
    17     8    23 1   
    18     9    10 1   
    19     9    11 1   
    20    10    24 1   
    21    10    25 1   
    22    10    26 1   
    23    11    12 2   
    24    11    13 1   
    25    12    27 1   
    26    13    14 1   
    27    13    28 1   
    28    14    29 1   
@<TRIPOS>SUBSTRUCTURE
     1 5KJ         1 TEMP              0 ****  ****    0 ROOT
