@<TRIPOS>MOLECULE
5KJ
   29    28     1     0     0
SMALL
abcg2


@<TRIPOS>ATOM
      1 OA2          7.3050    -2.4090    24.6280 o          1 5KJ      -0.734500
      2 C            8.4050    -2.8130    25.0870 c          1 5KJ       0.684000
      3 OA1          8.6950    -4.0020    25.3780 o          1 5KJ      -0.734500
      4 CA           9.5150    -1.7440    25.2630 c3         1 5KJ       0.019500
      5 N           10.5280    -2.0830    26.2730 n8         1 5KJ      -1.003200
      6 CB          10.1770    -1.5020    23.8990 c3         1 5KJ      -0.048400
      7 CG          11.1080    -0.2950    23.8590 c3         1 5KJ      -0.103400
      8 CD          11.6720    -0.0620    22.4570 c3         1 5KJ       0.215800
      9 NE          12.5970     1.0630    22.3720 nh         1 5KJ      -0.820600
     10 C1          12.0090     2.3900    22.2210 c3         1 5KJ       0.213100
     11 CZ          13.9090     0.8950    22.7310 c2         1 5KJ       0.768100
     12 NH1         14.5140    -0.2080    23.0080 n2         1 5KJ      -0.863100
     13 NH2         14.6500     2.0960    22.6760 nu         1 5KJ      -0.627900
     14 OH          15.8970     2.0420    23.3350 oh         1 5KJ      -0.433300
     15 H2           9.0280    -0.8170    25.5760 h1         1 5KJ       0.036700
     16 H3          10.0960    -2.0440    27.1920 hn         1 5KJ       0.384000
     17 H4          10.7600    -3.0650    26.1390 hn         1 5KJ       0.384000
     18 H6           9.3870    -1.3720    23.1540 hc         1 5KJ       0.039700
     19 H7          10.7320    -2.4040    23.6160 hc         1 5KJ       0.039700
     20 H8          11.9330    -0.4320    24.5600 hc         1 5KJ       0.045200
     21 H9          10.5630     0.6000    24.1760 hc         1 5KJ       0.045200
     22 H10         10.8580     0.1350    21.7580 h1         1 5KJ       0.047700
     23 H11         12.1690    -0.9650    22.0960 h1         1 5KJ       0.047700
     24 H12         11.9200     2.9230    23.1750 h1         1 5KJ       0.033367
     25 H13         12.5910     3.0010    21.5290 h1         1 5KJ       0.033367
     26 H14         11.0100     2.2760    21.8070 h1         1 5KJ       0.033367
     27 H15         13.8790    -0.9960    22.9630 hn         1 5KJ       0.395400
     28 H17         14.1630     2.8950    23.0590 hn         1 5KJ       0.449000
     29 H18         16.5400     1.9240    22.6230 ho         1 5KJ       0.455000
@<TRIPOS>BOND
     1     1     2 1   
     2     2     3 1   
     3     2     4 1   
     4     4     5 1   
     5     4     6 1   
     6     4    15 1   
     7     5    16 1   
     8     5    17 1   
     9     6     7 1   
    10     6    18 1   
    11     6    19 1   
    12     7     8 1   
    13     7    20 1   
    14     7    21 1   
    15     8     9 1   
    16     8    22 1   
    17     8    23 1   
    18     9    10 1   
    19     9    11 1   
    20    10    24 1   
    21    10    25 1   
    22    10    26 1   
    23    11    12 2   
    24    11    13 1   
    25    12    27 1   
    26    13    14 1   
    27    13    28 1   
    28    14    29 1   
@<TRIPOS>SUBSTRUCTURE
     1 5KJ         1 TEMP              0 ****  ****    0 ROOT
