@<TRIPOS>MOLECULE
5KK
   50    51     1     0     0
SMALL
bcc


@<TRIPOS>ATOM
      1 C1           2.4750    -0.0650     1.4070 c3         1 5KK       0.448500
      2 N1           1.1040     0.2890     1.7400 n7         1 5KK      -0.851033
      3 C4           0.6050    -0.1200     3.0340 c3         1 5KK       0.161300
      4 C7          -0.9120     0.0450     3.0760 c3         1 5KK       0.161300
      5 N4          -1.5790    -0.8720     2.1640 n7         1 5KK      -0.851033
      6 C11         -2.6000    -0.3370     1.2650 c3         1 5KK       0.448500
      7 N8          -2.1810    -0.3710    -0.1220 n3         1 5KK      -0.814100
      8 C10         -1.9980     0.8870    -0.8020 c3         1 5KK       0.448500
      9 N6          -1.1280     1.7640    -0.0470 n7         1 5KK      -0.851033
     10 C8          -0.5070     2.7890    -0.8770 c3         1 5KK       0.161300
     11 C6           0.8550     2.3640    -1.4190 c3         1 5KK       0.161300
     12 N3           1.8210     2.3000    -0.3340 n7         1 5KK      -0.851033
     13 C3           2.9570     1.4060    -0.4890 c3         1 5KK       0.448500
     14 N7           2.7890     0.0670     0.0130 n3         1 5KK      -0.814100
     15 C2           2.3510    -0.9790    -0.8600 c3         1 5KK       0.448500
     16 N2           0.9280    -1.0250    -1.1670 n7         1 5KK      -0.851033
     17 C5           0.5630    -2.2570    -1.8420 c3         1 5KK       0.161300
     18 C9          -0.8550    -2.7210    -1.5450 c3         1 5KK       0.161300
     19 N5          -1.9020    -1.8170    -1.9940 n7         1 5KK      -0.851033
     20 C12         -2.8050    -1.3670    -0.9630 c3         1 5KK       0.448500
     21 H1           3.2050     0.5340     1.9740 h2         1 5KK       0.031367
     22 H2           2.6310    -1.1080     1.7010 h2         1 5KK       0.031367
     23 H3           1.0140     1.2920     1.6330 hn         1 5KK       0.378633
     24 H5           0.8580    -1.1740     3.1930 h1         1 5KK       0.035783
     25 H6           1.0470     0.4320     3.8760 h1         1 5KK       0.035783
     26 H7          -1.2480    -0.1160     4.1070 h1         1 5KK       0.035783
     27 H8          -1.1550     1.0900     2.8370 h1         1 5KK       0.035783
     28 H9          -0.8830    -1.3090     1.5760 hn         1 5KK       0.378633
     29 H11         -3.5230    -0.9170     1.3760 h2         1 5KK       0.031367
     30 H12         -2.8450     0.6860     1.5650 h2         1 5KK       0.031367
     31 H14         -1.5940     0.6400    -1.7920 h2         1 5KK       0.031367
     32 H15         -2.9580     1.4080    -0.9730 h2         1 5KK       0.031367
     33 H16         -0.3920     1.1890     0.3510 hn         1 5KK       0.378633
     34 H18         -1.1750     3.0370    -1.7080 h1         1 5KK       0.035783
     35 H19         -0.3900     3.7180    -0.3070 h1         1 5KK       0.035783
     36 H20          0.7610     1.3670    -1.8560 h1         1 5KK       0.035783
     37 H21          1.1730     3.0450    -2.2220 h1         1 5KK       0.035783
     38 H22          2.1490     3.2290    -0.1110 hn         1 5KK       0.378633
     39 H24          3.2850     1.3200    -1.5330 h2         1 5KK       0.031367
     40 H25          3.7810     1.8680     0.0640 h2         1 5KK       0.031367
     41 H27          2.8990    -0.8870    -1.8050 h2         1 5KK       0.031367
     42 H28          2.6840    -1.9320    -0.4110 h2         1 5KK       0.031367
     43 H29          0.3900    -0.9150    -0.3160 hn         1 5KK       0.378633
     44 H31          0.6920    -2.1460    -2.9250 h1         1 5KK       0.035783
     45 H32          1.2250    -3.0890    -1.5450 h1         1 5KK       0.035783
     46 H33         -0.9830    -3.7060    -2.0040 h1         1 5KK       0.035783
     47 H34         -0.9450    -2.8820    -0.4640 h1         1 5KK       0.035783
     48 H35         -2.4330    -2.2310    -2.7460 hn         1 5KK       0.378633
     49 H37         -3.1390    -2.1850    -0.3070 h2         1 5KK       0.031367
     50 H38         -3.7070    -0.9860    -1.4680 h2         1 5KK       0.031367
@<TRIPOS>BOND
     1     1     2 1   
     2     1    14 1   
     3     1    21 1   
     4     1    22 1   
     5     2     3 1   
     6     2    23 1   
     7     3     4 1   
     8     3    24 1   
     9     3    25 1   
    10     4     5 1   
    11     4    26 1   
    12     4    27 1   
    13     5     6 1   
    14     5    28 1   
    15     6     7 1   
    16     6    29 1   
    17     6    30 1   
    18     7     8 1   
    19     7    20 1   
    20     8     9 1   
    21     8    31 1   
    22     8    32 1   
    23     9    10 1   
    24     9    33 1   
    25    10    11 1   
    26    10    34 1   
    27    10    35 1   
    28    11    12 1   
    29    11    36 1   
    30    11    37 1   
    31    12    13 1   
    32    12    38 1   
    33    13    14 1   
    34    13    39 1   
    35    13    40 1   
    36    14    15 1   
    37    15    16 1   
    38    15    41 1   
    39    15    42 1   
    40    16    17 1   
    41    16    43 1   
    42    17    18 1   
    43    17    44 1   
    44    17    45 1   
    45    18    19 1   
    46    18    46 1   
    47    18    47 1   
    48    19    20 1   
    49    19    48 1   
    50    20    49 1   
    51    20    50 1   
@<TRIPOS>SUBSTRUCTURE
     1 5KK         1 TEMP              0 ****  ****    0 ROOT
