@<TRIPOS>MOLECULE
5KK
   50    51     1     0     0
SMALL
No Charge or Current Charge


@<TRIPOS>ATOM
      1 C1           2.5630    -0.2890     1.3180 c3         1 5KK       0.448500
      2 N1           1.1310    -0.4540     1.4090 n7         1 5KK      -0.906233
      3 C4           0.5900    -0.4220     2.7900 c3         1 5KK       0.161300
      4 C7          -0.8920     0.0540     2.8240 c3         1 5KK       0.161300
      5 N4          -1.7560    -0.7780     1.9580 n7         1 5KK      -0.906233
      6 C11         -2.7850    -0.0600     1.2590 c3         1 5KK       0.448500
      7 N8          -2.1690    -0.1230    -0.0530 n3         1 5KK      -0.814100
      8 C10         -2.1850     1.1230    -0.8100 c3         1 5KK       0.448500
      9 N6          -1.3750     2.0170    -0.0190 n7         1 5KK      -0.906233
     10 C8          -0.7210     3.1210    -0.7380 c3         1 5KK       0.161300
     11 C6           0.6520     2.6230    -1.2790 c3         1 5KK       0.161300
     12 N3           1.3760     1.8290    -0.2500 n7         1 5KK      -0.906233
     13 C3           2.6470     1.2560    -0.6980 c3         1 5KK       0.448500
     14 N7           2.8300    -0.0750    -0.0990 n3         1 5KK      -0.814100
     15 C2           2.7690    -1.2320    -0.9800 c3         1 5KK       0.448500
     16 N2           1.3970    -1.2550    -1.3790 n7         1 5KK      -0.906233
     17 C5           0.8070    -2.5820    -1.6460 c3         1 5KK       0.161300
     18 C9          -0.6390    -2.6550    -1.0700 c3         1 5KK       0.161300
     19 N5          -1.5570    -1.6520    -1.6700 n7         1 5KK      -0.906233
     20 C12         -2.6730    -1.2470    -0.8350 c3         1 5KK       0.448500
     21 H1           2.8990     0.5850     1.8910 h2         1 5KK       0.031367
     22 H2           3.0900    -1.1800     1.6820 h2         1 5KK       0.031367
     23 H3           0.8350     0.4000     0.9230 hn         1 5KK       0.433833
     24 H5           0.6690    -1.4140     3.2540 h1         1 5KK       0.035783
     25 H6           1.1680     0.2760     3.4110 h1         1 5KK       0.035783
     26 H7          -1.2590     0.0430     3.8600 h1         1 5KK       0.035783
     27 H8          -0.8990     1.1000     2.4910 h1         1 5KK       0.035783
     28 H9          -1.1630    -0.9830     1.1440 hn         1 5KK       0.433833
     29 H11         -3.7520    -0.5820     1.2740 h2         1 5KK       0.031367
     30 H12         -2.9070     0.9650     1.6350 h2         1 5KK       0.031367
     31 H14         -1.7240     0.9640    -1.7950 h2         1 5KK       0.031367
     32 H15         -3.2070     1.5010    -0.9450 h2         1 5KK       0.031367
     33 H16         -0.5750     1.4130     0.1920 hn         1 5KK       0.433833
     34 H18         -1.3430     3.5120    -1.5560 h1         1 5KK       0.035783
     35 H19         -0.5270     3.9460    -0.0400 h1         1 5KK       0.035783
     36 H20          0.4660     1.9980    -2.1630 h1         1 5KK       0.035783
     37 H21          1.2480     3.4870    -1.6040 h1         1 5KK       0.035783
     38 H22          1.6050     2.4490     0.5330 hn         1 5KK       0.433833
     39 H24          2.6700     1.1620    -1.7920 h2         1 5KK       0.031367
     40 H25          3.4770     1.9120    -0.4030 h2         1 5KK       0.031367
     41 H27          3.4380    -1.1160    -1.8430 h2         1 5KK       0.031367
     42 H28          3.0480    -2.1330    -0.4180 h2         1 5KK       0.031367
     43 H29          0.9770    -0.9320    -0.4960 hn         1 5KK       0.433833
     44 H31          0.7980    -2.7990    -2.7230 h1         1 5KK       0.035783
     45 H32          1.3900    -3.3730    -1.1540 h1         1 5KK       0.035783
     46 H33         -1.0360    -3.6690    -1.2110 h1         1 5KK       0.035783
     47 H34         -0.5590    -2.4890     0.0140 h1         1 5KK       0.035783
     48 H35         -1.9120    -1.9890    -2.5680 hn         1 5KK       0.433833
     49 H37         -2.9900    -2.0790    -0.1920 h2         1 5KK       0.031367
     50 H38         -3.5330    -0.9220    -1.4380 h2         1 5KK       0.031367
@<TRIPOS>BOND
     1     1     2 1   
     2     1    14 1   
     3     1    21 1   
     4     1    22 1   
     5     2     3 1   
     6     2    23 1   
     7     3     4 1   
     8     3    24 1   
     9     3    25 1   
    10     4     5 1   
    11     4    26 1   
    12     4    27 1   
    13     5     6 1   
    14     5    28 1   
    15     6     7 1   
    16     6    29 1   
    17     6    30 1   
    18     7     8 1   
    19     7    20 1   
    20     8     9 1   
    21     8    31 1   
    22     8    32 1   
    23     9    10 1   
    24     9    33 1   
    25    10    11 1   
    26    10    34 1   
    27    10    35 1   
    28    11    12 1   
    29    11    36 1   
    30    11    37 1   
    31    12    13 1   
    32    12    38 1   
    33    13    14 1   
    34    13    39 1   
    35    13    40 1   
    36    14    15 1   
    37    15    16 1   
    38    15    41 1   
    39    15    42 1   
    40    16    17 1   
    41    16    43 1   
    42    17    18 1   
    43    17    44 1   
    44    17    45 1   
    45    18    19 1   
    46    18    46 1   
    47    18    47 1   
    48    19    20 1   
    49    19    48 1   
    50    20    49 1   
    51    20    50 1   
@<TRIPOS>SUBSTRUCTURE
     1 5KK         1 TEMP              0 ****  ****    0 ROOT
