@<TRIPOS>MOLECULE
5KL
   27    27     1     0     0
SMALL
No Charge or Current Charge


@<TRIPOS>ATOM
      1 CAA         -3.7270     1.6410     0.5020 c3         1 5KL       0.202600
      2 NAB         -3.6250     0.2530    -0.0170 nh         1 5KL      -0.661400
      3 CAC         -4.8820    -0.3790    -0.4880 c3         1 5KL       0.202600
      4 CAD         -2.4210    -0.4480    -0.0670 c2         1 5KL       0.141000
      5 CAE         -1.2340     0.0490     0.3350 ce         1 5KL      -0.473200
      6 CAF          0.0330    -0.7120     0.2070 c          1 5KL       0.629900
      7 OAN         -0.0030    -1.9370     0.1720 o          1 5KL      -0.641100
      8 CAG          1.3450     0.0140     0.0080 ca         1 5KL      -0.280600
      9 CAH          1.3810     1.3960    -0.2980 ca         1 5KL      -0.023000
     10 CAI          2.6090     2.0580    -0.4710 ca         1 5KL      -0.185000
     11 CAJ          3.8170     1.3570    -0.3480 ca         1 5KL      -0.041000
     12 CAK          3.7930    -0.0150    -0.0600 ca         1 5KL      -0.186000
     13 CAL          2.5710    -0.6820     0.1100 ca         1 5KL       0.221100
     14 OAM          2.5880    -2.0140     0.3740 oh         1 5KL      -0.567100
     15 H1          -3.1000     2.3170    -0.0940 h1         1 5KL       0.046867
     16 H2          -4.7580     2.0150     0.4640 h1         1 5KL       0.046867
     17 H3          -3.3900     1.6820     1.5460 h1         1 5KL       0.046867
     18 H4          -5.7410     0.2960    -0.3850 h1         1 5KL       0.046867
     19 H5          -4.7920    -0.6590    -1.5460 h1         1 5KL       0.046867
     20 H6          -5.0910    -1.2870     0.0930 h1         1 5KL       0.046867
     21 H7          -2.4980    -1.4650    -0.4680 h4         1 5KL       0.207000
     22 H8          -1.1460     1.0690     0.6920 ha         1 5KL       0.187000
     23 H9           0.4680     1.9720    -0.4230 ha         1 5KL       0.106000
     24 H10          2.6210     3.1200    -0.7060 ha         1 5KL       0.113000
     25 H11          4.7660     1.8730    -0.4830 ha         1 5KL       0.111000
     26 H12          4.7260    -0.5650     0.0270 ha         1 5KL       0.128000
     27 H13          1.6330    -2.2930     0.3500 ho         1 5KL       0.527000
@<TRIPOS>BOND
     1     1     2 1   
     2     1    15 1   
     3     1    16 1   
     4     1    17 1   
     5     2     3 1   
     6     2     4 1   
     7     3    18 1   
     8     3    19 1   
     9     3    20 1   
    10     4     5 2   
    11     4    21 1   
    12     5     6 1   
    13     5    22 1   
    14     6     7 2   
    15     6     8 1   
    16     8     9 ar  
    17     8    13 ar  
    18     9    10 ar  
    19     9    23 1   
    20    10    11 ar  
    21    10    24 1   
    22    11    12 ar  
    23    11    25 1   
    24    12    13 ar  
    25    12    26 1   
    26    13    14 1   
    27    14    27 1   
@<TRIPOS>SUBSTRUCTURE
     1 5KL         1 TEMP              0 ****  ****    0 ROOT
