@<TRIPOS>MOLECULE
5KL
   27    27     1     0     0
SMALL
abcg2


@<TRIPOS>ATOM
      1 CAA         -3.7130     1.6500     0.0380 c3         1 5KL       0.202600
      2 NAB         -3.6160     0.2060    -0.0040 nh         1 5KL      -0.661400
      3 CAC         -4.8520    -0.5440    -0.0910 c3         1 5KL       0.202600
      4 CAD         -2.4380    -0.3950    -0.0190 c2         1 5KL       0.141000
      5 CAE         -1.2100     0.2230    -0.0070 ce         1 5KL      -0.473200
      6 CAF         -0.0200    -0.5620    -0.0030 c          1 5KL       0.629900
      7 OAN         -0.0520    -1.8150     0.0290 o          1 5KL      -0.641100
      8 CAG          1.3080     0.1010    -0.0340 ca         1 5KL      -0.280600
      9 CAH          1.4640     1.4910    -0.1060 ca         1 5KL      -0.023000
     10 CAI          2.7090     2.0850    -0.1360 ca         1 5KL      -0.185000
     11 CAJ          3.8480     1.2820    -0.0910 ca         1 5KL      -0.041000
     12 CAK          3.7340    -0.0920    -0.0210 ca         1 5KL      -0.186000
     13 CAL          2.4740    -0.6980     0.0050 ca         1 5KL       0.221100
     14 OAM          2.4170    -2.0250     0.0690 oh         1 5KL      -0.567100
     15 H1          -3.3220     2.1030    -0.8750 h1         1 5KL       0.046867
     16 H2          -4.7560     1.9380     0.1440 h1         1 5KL       0.046867
     17 H3          -3.1600     2.0520     0.8880 h1         1 5KL       0.046867
     18 H4          -5.4880    -0.3380     0.7700 h1         1 5KL       0.046867
     19 H5          -5.4000    -0.2790    -0.9960 h1         1 5KL       0.046867
     20 H6          -4.6390    -1.6100    -0.1160 h1         1 5KL       0.046867
     21 H7          -2.4780    -1.4770    -0.0430 h4         1 5KL       0.207000
     22 H8          -1.1480     1.3000    -0.0100 ha         1 5KL       0.187000
     23 H9           0.5950     2.1320    -0.1440 ha         1 5KL       0.106000
     24 H10          2.7980     3.1610    -0.1910 ha         1 5KL       0.113000
     25 H11          4.8310     1.7330    -0.1130 ha         1 5KL       0.111000
     26 H12          4.6160    -0.7190     0.0140 ha         1 5KL       0.128000
     27 H13          1.4410    -2.2490     0.0670 ho         1 5KL       0.527000
@<TRIPOS>BOND
     1     1     2 1   
     2     1    15 1   
     3     1    16 1   
     4     1    17 1   
     5     2     3 1   
     6     2     4 1   
     7     3    18 1   
     8     3    19 1   
     9     3    20 1   
    10     4     5 2   
    11     4    21 1   
    12     5     6 1   
    13     5    22 1   
    14     6     7 2   
    15     6     8 1   
    16     8     9 ar  
    17     8    13 ar  
    18     9    10 ar  
    19     9    23 1   
    20    10    11 ar  
    21    10    24 1   
    22    11    12 ar  
    23    11    25 1   
    24    12    13 ar  
    25    12    26 1   
    26    13    14 1   
    27    14    27 1   
@<TRIPOS>SUBSTRUCTURE
     1 5KL         1 TEMP              0 ****  ****    0 ROOT
