@<TRIPOS>MOLECULE
5KM
   40    42     1     0     0
SMALL
No Charge or Current Charge


@<TRIPOS>ATOM
      1 C1          14.4630    -6.3650     9.9540 c6         1 5KM       0.127300
      2 C2          13.3590    -5.9830     8.9230 c6         1 5KM       0.146300
      3 C3          12.0030    -5.8800     9.6850 c6         1 5KM       0.233500
      4 C5           8.7500    -4.6790     8.1660 ca         1 5KM       0.331300
      5 C6           7.1530    -3.0350     7.7140 ca         1 5KM       0.257000
      6 C7           7.1170    -3.4040     6.3460 ca         1 5KM      -0.083000
      7 O4           4.6280     0.1400     8.9330 o          1 5KM      -0.713500
      8 O3           3.8610     0.4090     6.9450 o          1 5KM      -0.713500
      9 C10          5.4680    -1.2930     7.2560 ca         1 5KM      -0.131600
     10 C12          6.3250    -1.9830     8.1480 ca         1 5KM      -0.073000
     11 N            7.9560    -3.6680     8.6020 nb         1 5KM      -0.654000
     12 C9           5.4540    -1.6820     5.8970 ca         1 5KM      -0.053000
     13 C8           6.2730    -2.7300     5.4460 ca         1 5KM      -0.153000
     14 C13          7.9360    -4.4530     5.8930 ca         1 5KM      -0.073000
     15 C14          8.7630    -5.0990     6.8230 ca         1 5KM      -0.168000
     16 O2          11.0300    -5.2220     8.8450 os         1 5KM      -0.430000
     17 O1          13.6360    -4.7340     8.2530 oh         1 5KM      -0.676000
     18 C15         12.1790    -5.0980    10.9830 c2         1 5KM      -0.360200
     19 C16         13.3780    -4.8890    11.5560 c2         1 5KM      -0.000900
     20 O5          14.5440    -5.3970    11.0350 os         1 5KM      -0.329100
     21 C           15.8760    -6.5270     9.3090 c3         1 5KM       0.165600
     22 O           16.8840    -6.9340    10.2520 oh         1 5KM      -0.646000
     23 H1          14.1870    -7.3350    10.3940 h1         1 5KM       0.058700
     24 H2          13.2740    -6.7900     8.1810 h1         1 5KM       0.040700
     25 H3          11.6490    -6.8960     9.9140 h1         1 5KM       0.032700
     26 H7           6.3540    -1.7030     9.1970 ha         1 5KM       0.147000
     27 H8           4.8080    -1.1730     5.1850 ha         1 5KM       0.131000
     28 H9           6.2490    -3.0150     4.3970 ha         1 5KM       0.091000
     29 H10          7.9310    -4.7600     4.8500 ha         1 5KM       0.100000
     30 H11          9.4100    -5.9140     6.5110 ha         1 5KM       0.107000
     31 H12         12.7550    -4.2930     8.2060 ho         1 5KM       0.493000
     32 H13         11.2800    -4.6830    11.4360 ha         1 5KM       0.200000
     33 H14         13.5130    -4.3090    12.4740 h4         1 5KM       0.210000
     34 H15         16.1600    -5.5710     8.8480 h1         1 5KM       0.025700
     35 H16         15.8000    -7.2680     8.5020 h1         1 5KM       0.025700
     36 H17         17.7390    -6.9490     9.7680 ho         1 5KM       0.440000
     37 C4           9.6380    -5.3730     9.2040 c3         1 5KM       0.107300
     38 C11          4.5850    -0.1610     7.7480 c          1 5KM       0.714600
     39 H4           9.4410    -4.9480    10.1960 h1         1 5KM       0.036200
     40 H5           9.3680    -6.4360     9.2380 h1         1 5KM       0.036200
@<TRIPOS>BOND
     1     1     2 1   
     2     1    20 1   
     3     1    21 1   
     4     1    23 1   
     5     2     3 1   
     6     2    17 1   
     7     2    24 1   
     8     3    16 1   
     9     3    18 1   
    10     3    25 1   
    11     4    11 ar  
    12     4    15 ar  
    13     4    37 1   
    14     5     6 ar  
    15     5    10 ar  
    16     5    11 ar  
    17     6    13 ar  
    18     6    14 ar  
    19     7    38 1   
    20     8    38 1   
    21     9    10 ar  
    22     9    12 ar  
    23     9    38 1   
    24    10    26 1   
    25    12    13 ar  
    26    12    27 1   
    27    13    28 1   
    28    14    15 ar  
    29    14    29 1   
    30    15    30 1   
    31    16    37 1   
    32    17    31 1   
    33    18    19 2   
    34    18    32 1   
    35    19    20 1   
    36    19    33 1   
    37    21    22 1   
    38    21    34 1   
    39    21    35 1   
    40    22    36 1   
    41    37    39 1   
    42    37    40 1   
@<TRIPOS>SUBSTRUCTURE
     1 5KM         1 TEMP              0 ****  ****    0 ROOT
