@<TRIPOS>MOLECULE
5KM
   40    42     1     0     0
SMALL
bcc


@<TRIPOS>ATOM
      1 C1          14.3140    -6.4590     9.8550 c6         1 5KM       0.104100
      2 C2          13.2990    -5.7930     8.9240 c6         1 5KM       0.123100
      3 C3          11.9980    -5.6190     9.7040 c6         1 5KM       0.210300
      4 C5           8.8900    -4.3330     8.2910 ca         1 5KM       0.396600
      5 C6           7.1250    -2.9790     7.7300 ca         1 5KM       0.387600
      6 C7           7.1890    -3.3640     6.3700 ca         1 5KM      -0.148300
      7 O4           4.2350    -0.1740     8.8960 o          1 5KM      -0.818800
      8 O3           3.4060    -0.1020     6.8250 o          1 5KM      -0.818800
      9 C10          5.2530    -1.5150     7.2390 ca         1 5KM      -0.131600
     10 C12          6.1460    -2.0470     8.1360 ca         1 5KM      -0.156300
     11 N            7.9800    -3.4720     8.6600 nb         1 5KM      -0.654000
     12 C9           5.3230    -1.9160     5.8840 ca         1 5KM      -0.071000
     13 C8           6.2640    -2.8120     5.4570 ca         1 5KM      -0.171000
     14 C13          8.1880    -4.2910     6.0020 ca         1 5KM      -0.091000
     15 C14          9.0390    -4.7740     6.9520 ca         1 5KM      -0.251300
     16 O2          11.1120    -4.8450     8.9300 os         1 5KM      -0.383600
     17 O1          13.7370    -4.5300     8.4910 oh         1 5KM      -0.553800
     18 C15         12.3070    -5.0020    11.0390 c2         1 5KM      -0.310200
     19 C16         13.5330    -5.0400    11.5540 c2         1 5KM       0.049100
     20 O5          14.5940    -5.6440    10.9880 os         1 5KM      -0.305900
     21 C           15.6260    -6.7610     9.1660 c3         1 5KM       0.142400
     22 O           16.4360    -7.5100    10.0390 oh         1 5KM      -0.583800
     23 H1          13.8760    -7.4050    10.2040 h1         1 5KM       0.058700
     24 H2          13.1170    -6.4690     8.0790 h1         1 5KM       0.040700
     25 H3          11.5640    -6.6210     9.8470 h1         1 5KM       0.032700
     26 H7           6.1130    -1.7580     9.1780 ha         1 5KM       0.165000
     27 H8           4.6180    -1.5000     5.1780 ha         1 5KM       0.149000
     28 H9           6.3130    -3.1090     4.4160 ha         1 5KM       0.109000
     29 H10          8.2690    -4.6110     4.9700 ha         1 5KM       0.118000
     30 H11          9.8100    -5.4880     6.6980 ha         1 5KM       0.125000
     31 H12         14.3200    -4.6440     7.7350 ho         1 5KM       0.394000
     32 H13         11.5280    -4.5130    11.6090 ha         1 5KM       0.150000
     33 H14         13.7840    -4.5790    12.5020 h4         1 5KM       0.160000
     34 H15         16.1100    -5.8220     8.8700 h1         1 5KM       0.025700
     35 H16         15.3980    -7.3130     8.2450 h1         1 5KM       0.025700
     36 H17         17.2950    -7.6280     9.6230 ho         1 5KM       0.401000
     37 C4           9.7780    -4.8910     9.3680 c3         1 5KM       0.084100
     38 C11          4.2000    -0.5040     7.6960 c          1 5KM       0.925200
     39 H4           9.6180    -4.3170    10.2870 h1         1 5KM       0.036200
     40 H5           9.4750    -5.9290     9.5780 h1         1 5KM       0.036200
@<TRIPOS>BOND
     1     1     2 1   
     2     1    20 1   
     3     1    21 1   
     4     1    23 1   
     5     2     3 1   
     6     2    17 1   
     7     2    24 1   
     8     3    16 1   
     9     3    18 1   
    10     3    25 1   
    11     4    11 ar  
    12     4    15 ar  
    13     4    37 1   
    14     5     6 ar  
    15     5    10 ar  
    16     5    11 ar  
    17     6    13 ar  
    18     6    14 ar  
    19     7    38 1   
    20     8    38 1   
    21     9    10 ar  
    22     9    12 ar  
    23     9    38 1   
    24    10    26 1   
    25    12    13 ar  
    26    12    27 1   
    27    13    28 1   
    28    14    15 ar  
    29    14    29 1   
    30    15    30 1   
    31    16    37 1   
    32    17    31 1   
    33    18    19 2   
    34    18    32 1   
    35    19    20 1   
    36    19    33 1   
    37    21    22 1   
    38    21    34 1   
    39    21    35 1   
    40    22    36 1   
    41    37    39 1   
    42    37    40 1   
@<TRIPOS>SUBSTRUCTURE
     1 5KM         1 TEMP              0 ****  ****    0 ROOT
