@<TRIPOS>MOLECULE
5KN
   40    42     1     0     0
SMALL
abcg2


@<TRIPOS>ATOM
      1 C1           0.0300     2.6920    -0.0710 ca         1 5KN      -0.141000
      2 C2           1.2550     2.0320    -0.0730 ca         1 5KN      -0.138000
      3 C3           1.3150     0.6460     0.0370 ca         1 5KN       0.255000
      4 C8           0.1010    -0.0490     0.1100 ca         1 5KN      -0.144000
      5 C4           2.6970    -1.1550    -0.8390 c6         1 5KN       0.153300
      6 C5           3.8900    -2.0040    -0.4460 c6         1 5KN       0.149600
      7 C6           4.9010    -0.1970     0.5960 c6         1 5KN       0.149600
      8 C7           3.7410     0.7120     0.2350 c6         1 5KN       0.153300
      9 C10         -3.1180    -0.1560    -1.0580 c6         1 5KN       0.143800
     10 C           -1.1730     2.0050     0.0130 ca         1 5KN       0.245000
     11 C9          -1.1270     0.5970     0.0860 ca         1 5KN       0.223000
     12 N2          -2.3540    -0.0910     0.1850 nh         1 5KN      -0.779400
     13 C13         -2.3400    -1.3890     0.8310 c6         1 5KN       0.143800
     14 C12         -3.7690    -1.8310     1.0870 c6         1 5KN       0.151100
     15 O1          -4.5170    -1.8910    -0.1070 os         1 5KN      -0.450000
     16 C11         -4.5230    -0.6420    -0.7620 c6         1 5KN       0.151100
     17 N1           2.5260    -0.0660     0.1140 nh         1 5KN      -0.774400
     18 O            5.0670    -1.2340    -0.3450 os         1 5KN      -0.448000
     19 H1           0.0180     3.7750    -0.1230 ha         1 5KN       0.112000
     20 H2           2.1540     2.6290    -0.1460 ha         1 5KN       0.113000
     21 H3           0.1200    -1.1270     0.2100 ha         1 5KN       0.116000
     22 H4           2.8300    -0.7710    -1.8620 h1         1 5KN       0.045450
     23 H5           1.8150    -1.7950    -0.8460 h1         1 5KN       0.045450
     24 H6           3.6770    -2.5050     0.5090 h1         1 5KN       0.051700
     25 H7           4.0630    -2.7720    -1.2000 h1         1 5KN       0.051700
     26 H8           5.8280     0.3780     0.6180 h1         1 5KN       0.051700
     27 H9           4.7370    -0.6130     1.6000 h1         1 5KN       0.051700
     28 H10          3.6260     1.4530     1.0280 h1         1 5KN       0.045450
     29 H11          3.9790     1.2590    -0.6920 h1         1 5KN       0.045450
     30 H12         -3.1740     0.8340    -1.5140 h1         1 5KN       0.050200
     31 H13         -2.6320    -0.8270    -1.7840 h1         1 5KN       0.050200
     32 H14         -2.3420     3.6270     0.2960 hn         1 5KN       0.439500
     33 H15         -3.1060     2.1720     0.5340 hn         1 5KN       0.439500
     34 H16         -1.8300    -2.1540     0.2240 h1         1 5KN       0.050200
     35 H17         -1.8120    -1.3190     1.7840 h1         1 5KN       0.050200
     36 H18         -3.7760    -2.8300     1.5270 h1         1 5KN       0.050200
     37 H19         -4.2370    -1.1400     1.8020 h1         1 5KN       0.050200
     38 H20         -5.0420     0.1100    -0.1500 h1         1 5KN       0.050200
     39 H21         -5.0810    -0.7630    -1.6920 h1         1 5KN       0.050200
     40 N           -2.3980     2.6630     0.0050 nv         1 5KN      -1.052000
@<TRIPOS>BOND
     1     1     2 ar  
     2     1    10 ar  
     3     1    19 1   
     4     2     3 ar  
     5     2    20 1   
     6     3     4 ar  
     7     3    17 1   
     8     4    11 ar  
     9     4    21 1   
    10     5     6 1   
    11     5    17 1   
    12     5    22 1   
    13     5    23 1   
    14     6    18 1   
    15     6    24 1   
    16     6    25 1   
    17     7     8 1   
    18     7    18 1   
    19     7    26 1   
    20     7    27 1   
    21     8    17 1   
    22     8    28 1   
    23     8    29 1   
    24     9    12 1   
    25     9    16 1   
    26     9    30 1   
    27     9    31 1   
    28    10    11 ar  
    29    10    40 1   
    30    11    12 1   
    31    12    13 1   
    32    13    14 1   
    33    13    34 1   
    34    13    35 1   
    35    14    15 1   
    36    14    36 1   
    37    14    37 1   
    38    15    16 1   
    39    16    38 1   
    40    16    39 1   
    41    32    40 1   
    42    33    40 1   
@<TRIPOS>SUBSTRUCTURE
     1 5KN         1 TEMP              0 ****  ****    0 ROOT
