@<TRIPOS>MOLECULE
5KN
   40    42     1     0     0
SMALL
No Charge or Current Charge


@<TRIPOS>ATOM
      1 C1           0.0250     2.7910    -0.0730 ca         1 5KN      -0.141000
      2 C2           1.2630     2.1280    -0.1030 ca         1 5KN      -0.138000
      3 C3           1.3260     0.7210    -0.0670 ca         1 5KN       0.255000
      4 C8           0.1290    -0.0130     0.0040 ca         1 5KN      -0.144000
      5 C4           2.8250    -1.0270    -1.1200 c6         1 5KN       0.153300
      6 C5           3.9620    -2.0010    -0.6860 c6         1 5KN       0.149600
      7 C6           4.9140    -0.3620     0.7950 c6         1 5KN       0.149600
      8 C7           3.8200     0.6850     0.4270 c6         1 5KN       0.153300
      9 C10         -3.1700    -0.3080    -1.1150 c6         1 5KN       0.143800
     10 C           -1.1720     2.0600    -0.0070 ca         1 5KN       0.245000
     11 C9          -1.1240     0.6300     0.0350 ca         1 5KN       0.223000
     12 N2          -2.3140    -0.1570     0.1060 nh         1 5KN      -0.779400
     13 C13         -2.3920    -1.3320     1.0360 c6         1 5KN       0.143800
     14 C12         -3.8630    -1.7750     1.2990 c6         1 5KN       0.151100
     15 O1          -4.5640    -1.9890     0.0510 os         1 5KN      -0.450000
     16 C11         -4.6090    -0.7980    -0.7700 c6         1 5KN       0.151100
     17 N1           2.5700     0.0420    -0.0980 nh         1 5KN      -0.774400
     18 O            5.1510    -1.2680    -0.3080 os         1 5KN      -0.448000
     19 H1          -0.0010     3.8770    -0.1030 ha         1 5KN       0.112000
     20 H2           2.1730     2.7180    -0.1660 ha         1 5KN       0.113000
     21 H3           0.1750    -1.0950     0.0390 ha         1 5KN       0.116000
     22 H4           3.1050    -0.5640    -2.0770 h1         1 5KN       0.045450
     23 H5           1.9180    -1.6200    -1.3040 h1         1 5KN       0.045450
     24 H6           3.6270    -2.6100     0.1660 h1         1 5KN       0.051700
     25 H7           4.2060    -2.6810    -1.5140 h1         1 5KN       0.051700
     26 H8           5.8520     0.1520     1.0480 h1         1 5KN       0.051700
     27 H9           4.5960    -0.9400     1.6750 h1         1 5KN       0.051700
     28 H10          3.5930     1.2770     1.3270 h1         1 5KN       0.045450
     29 H11          4.2300     1.3740    -0.3250 h1         1 5KN       0.045450
     30 H12         -3.2460     0.6490    -1.6530 h1         1 5KN       0.050200
     31 H13         -2.7080    -1.0300    -1.8050 h1         1 5KN       0.050200
     32 H14         -2.3670     3.7520     0.2540 hn         1 5KN       0.439500
     33 H15         -3.2070     2.2250     0.2610 hn         1 5KN       0.439500
     34 H16         -1.8410    -2.1850     0.6130 h1         1 5KN       0.050200
     35 H17         -1.9240    -1.0840     2.0000 h1         1 5KN       0.050200
     36 H18         -3.8730    -2.7060     1.8820 h1         1 5KN       0.050200
     37 H19         -4.3870    -1.0030     1.8810 h1         1 5KN       0.050200
     38 H20         -5.1530    -0.0080    -0.2310 h1         1 5KN       0.050200
     39 H21         -5.1600    -1.0180    -1.6960 h1         1 5KN       0.050200
     40 N           -2.3670     2.7570     0.0410 nv         1 5KN      -1.052000
@<TRIPOS>BOND
     1     1     2 ar  
     2     1    10 ar  
     3     1    19 1   
     4     2     3 ar  
     5     2    20 1   
     6     3     4 ar  
     7     3    17 1   
     8     4    11 ar  
     9     4    21 1   
    10     5     6 1   
    11     5    17 1   
    12     5    22 1   
    13     5    23 1   
    14     6    18 1   
    15     6    24 1   
    16     6    25 1   
    17     7     8 1   
    18     7    18 1   
    19     7    26 1   
    20     7    27 1   
    21     8    17 1   
    22     8    28 1   
    23     8    29 1   
    24     9    12 1   
    25     9    16 1   
    26     9    30 1   
    27     9    31 1   
    28    10    11 ar  
    29    10    40 1   
    30    11    12 1   
    31    12    13 1   
    32    13    14 1   
    33    13    34 1   
    34    13    35 1   
    35    14    15 1   
    36    14    36 1   
    37    14    37 1   
    38    15    16 1   
    39    16    38 1   
    40    16    39 1   
    41    32    40 1   
    42    33    40 1   
@<TRIPOS>SUBSTRUCTURE
     1 5KN         1 TEMP              0 ****  ****    0 ROOT
