@<TRIPOS>MOLECULE
5KO
   14    13     1     0     0
SMALL
abcg2


@<TRIPOS>ATOM
      1 O01         -2.4780     0.0900    -0.2920 o          1 5KO      -0.514100
      2 C02         -1.5160    -0.2250     0.3630 c          1 5KO       0.585900
      3 C03         -0.2480    -0.8010    -0.1850 c3         1 5KO      -0.244400
      4 C04          0.9660    -0.0530     0.3670 c3         1 5KO       0.176300
      5 O05          0.8400     1.3360     0.1290 oh         1 5KO      -0.657000
      6 C06          2.2670    -0.6160    -0.1800 c3         1 5KO      -0.126100
      7 H2          -0.1960    -1.8490     0.1340 hc         1 5KO       0.071200
      8 H3          -0.2640    -0.7870    -1.2780 hc         1 5KO       0.071200
      9 H4           0.9690    -0.1580     1.4560 h1         1 5KO       0.071700
     10 H5           0.8810     1.4850    -0.8220 ho         1 5KO       0.444000
     11 H6           2.3090    -0.5220    -1.2680 hc         1 5KO       0.044367
     12 H7           3.1240    -0.0920     0.2420 hc         1 5KO       0.044367
     13 H8           2.3660    -1.6740     0.0640 hc         1 5KO       0.044367
     14 H1          -1.5250    -0.1130     1.4640 h4         1 5KO      -0.013800
@<TRIPOS>BOND
     1     1     2 2   
     2     2     3 1   
     3     2    14 1   
     4     3     4 1   
     5     3     7 1   
     6     3     8 1   
     7     4     5 1   
     8     4     6 1   
     9     4     9 1   
    10     5    10 1   
    11     6    11 1   
    12     6    12 1   
    13     6    13 1   
@<TRIPOS>SUBSTRUCTURE
     1 5KO         1 TEMP              0 ****  ****    0 ROOT
