@<TRIPOS>MOLECULE
5KO
   14    13     1     0     0
SMALL
No Charge or Current Charge


@<TRIPOS>ATOM
      1 O01         -2.2740     0.5800    -0.0470 o          1 5KO      -0.514100
      2 C02         -1.5660    -0.2860     0.4570 c          1 5KO       0.585900
      3 C03         -0.2650    -0.7840    -0.1740 c3         1 5KO      -0.244400
      4 C04          0.9550     0.0020     0.3420 c3         1 5KO       0.176300
      5 O05          0.8720     1.3520    -0.1080 oh         1 5KO      -0.657000
      6 C06          2.2870    -0.5980    -0.1460 c3         1 5KO      -0.126100
      7 H2          -0.1230    -1.8230     0.1450 hc         1 5KO       0.071200
      8 H3          -0.3260    -0.7160    -1.2670 hc         1 5KO       0.071200
      9 H4           0.9530    -0.0290     1.4430 h1         1 5KO       0.071700
     10 H5           0.9470     1.3330    -1.0870 ho         1 5KO       0.444000
     11 H6           2.3380    -0.6100    -1.2420 hc         1 5KO       0.044367
     12 H7           3.1350    -0.0160     0.2340 hc         1 5KO       0.044367
     13 H8           2.3990    -1.6290     0.2130 hc         1 5KO       0.044367
     14 H1          -1.8370    -0.7550     1.4290 h4         1 5KO      -0.013800
@<TRIPOS>BOND
     1     1     2 2   
     2     2     3 1   
     3     2    14 1   
     4     3     4 1   
     5     3     7 1   
     6     3     8 1   
     7     4     5 1   
     8     4     6 1   
     9     4     9 1   
    10     5    10 1   
    11     6    11 1   
    12     6    12 1   
    13     6    13 1   
@<TRIPOS>SUBSTRUCTURE
     1 5KO         1 TEMP              0 ****  ****    0 ROOT
