@<TRIPOS>MOLECULE
5KP
   56    59     1     0     0
SMALL
No Charge or Current Charge


@<TRIPOS>ATOM
      1 CBE         -0.8540    11.5810   -23.9670 c3         1 5KP      -0.045800
      2 CAZ         -1.4880    11.5960   -22.5710 ca         1 5KP      -0.042300
      3 CBA         -2.2730    10.4920   -22.1530 ca         1 5KP       0.128000
      4 Cl1         -2.4640     9.0580   -23.1670 cl         1 5KP      -0.215000
      5 CBB         -2.9260    10.5050   -20.9100 ca         1 5KP      -0.104000
      6 CBC         -2.8140    11.6180   -20.0670 ca         1 5KP      -0.097000
      7 CBD         -2.0290    12.7120   -20.4590 ca         1 5KP      -0.127000
      8 CAY         -1.3450    12.7050   -21.6890 ca         1 5KP      -0.039000
      9 NAW         -0.5540    13.8460   -21.9840 ns         1 5KP      -0.170000
     10 CAV          0.7640    13.9370   -22.4030 c          1 5KP       0.592100
     11 OAX          1.5000    12.9650   -22.5290 o          1 5KP      -0.578100
     12 CAU          1.2650    15.3680   -22.6520 c3         1 5KP      -0.150400
     13 CAT          1.4190    15.6820   -24.1630 c3         1 5KP      -0.087400
     14 CAS          0.0740    15.7840   -24.9200 c3         1 5KP       0.116000
     15 NAA          0.2470    15.9700   -26.3780 n          1 5KP      -0.164800
     16 CAF          0.1880    17.2860   -26.9280 c          1 5KP       0.477500
     17 OAJ          0.0110    18.3000   -26.2560 o          1 5KP      -0.531000
     18 NAB          0.4440    14.7770   -27.0870 nc         1 5KP      -0.444300
     19 CAC          0.6070    14.7850   -28.4160 cd         1 5KP       0.430900
     20 CAL          0.8070    13.4480   -29.0770 c3         1 5KP      -0.116400
     21 CAD          0.5750    16.0500   -29.1010 cd         1 5KP      -0.265900
     22 CAG          0.7200    16.3070   -30.4400 cc         1 5KP      -0.083300
     23 CAK          0.9750    15.4170   -31.6340 c3         1 5KP      -0.033800
     24 CAE          0.3750    17.2550   -28.4080 cd         1 5KP       0.208500
     25 NAI          0.3720    18.3030   -29.2200 nc         1 5KP      -0.437800
     26 NAH          0.5870    17.6980   -30.4430 na         1 5KP       0.227000
     27 CAM          0.5960    18.4810   -31.5980 ca         1 5KP      -0.004200
     28 CAN         -0.4150    18.3290   -32.5690 ca         1 5KP      -0.094000
     29 CAO         -0.4030    19.1180   -33.7330 ca         1 5KP      -0.102000
     30 CAP          0.6170    20.0650   -33.9310 ca         1 5KP      -0.100000
     31 CAQ          1.6240    20.2240   -32.9640 ca         1 5KP      -0.102000
     32 CAR          1.6130    19.4360   -31.8000 ca         1 5KP      -0.094000
     33 H1          -1.5270    11.1410   -24.7120 hc         1 5KP       0.055367
     34 H2          -0.6250    12.5850   -24.3360 hc         1 5KP       0.055367
     35 H3           0.0740    10.9980   -23.9710 hc         1 5KP       0.055367
     36 H4          -3.5260     9.6520   -20.6050 ha         1 5KP       0.131000
     37 H5          -3.3290    11.6300   -19.1080 ha         1 5KP       0.120000
     38 H6          -1.9380    13.5660   -19.7910 ha         1 5KP       0.117000
     39 H7          -1.0220    14.7320   -21.8440 hn         1 5KP       0.151000
     40 H8           2.2510    15.4740   -22.1830 hc         1 5KP       0.061200
     41 H9           0.5700    16.0960   -22.2150 hc         1 5KP       0.061200
     42 H10          2.0440    14.9100   -24.6310 hc         1 5KP       0.067200
     43 H11          1.9560    16.6310   -24.2780 hc         1 5KP       0.067200
     44 H12         -0.5180    16.6100   -24.5050 h1         1 5KP       0.067700
     45 H13         -0.5070    14.8680   -24.7590 h1         1 5KP       0.067700
     46 H14          0.6940    12.6220   -28.3650 hc         1 5KP       0.054367
     47 H15          0.0730    13.2930   -29.8750 hc         1 5KP       0.054367
     48 H16          1.8110    13.3740   -29.5090 hc         1 5KP       0.054367
     49 H17          1.8310    14.7570   -31.4580 hc         1 5KP       0.059700
     50 H18          0.0990    14.7950   -31.8520 hc         1 5KP       0.059700
     51 H19          1.2020    15.9980   -32.5360 hc         1 5KP       0.059700
     52 H20         -1.2090    17.6000   -32.4200 ha         1 5KP       0.133000
     53 H21         -1.1840    18.9960   -34.4810 ha         1 5KP       0.122500
     54 H22          0.6250    20.6750   -34.8320 ha         1 5KP       0.120000
     55 H23          2.4130    20.9580   -33.1160 ha         1 5KP       0.122500
     56 H24          2.3960    19.5630   -31.0540 ha         1 5KP       0.133000
@<TRIPOS>BOND
     1     1     2 1   
     2     1    33 1   
     3     1    34 1   
     4     1    35 1   
     5     2     3 ar  
     6     2     8 ar  
     7     3     4 1   
     8     3     5 ar  
     9     5     6 ar  
    10     5    36 1   
    11     6     7 ar  
    12     6    37 1   
    13     7     8 ar  
    14     7    38 1   
    15     8     9 1   
    16     9    10 1   
    17     9    39 1   
    18    10    11 2   
    19    10    12 1   
    20    12    13 1   
    21    12    40 1   
    22    12    41 1   
    23    13    14 1   
    24    13    42 1   
    25    13    43 1   
    26    14    15 1   
    27    14    44 1   
    28    14    45 1   
    29    15    16 1   
    30    15    18 1   
    31    16    17 2   
    32    16    24 1   
    33    18    19 2   
    34    19    20 1   
    35    19    21 1   
    36    20    46 1   
    37    20    47 1   
    38    20    48 1   
    39    21    22 2   
    40    21    24 1   
    41    22    23 1   
    42    22    26 1   
    43    23    49 1   
    44    23    50 1   
    45    23    51 1   
    46    24    25 2   
    47    25    26 1   
    48    26    27 1   
    49    27    28 ar  
    50    27    32 ar  
    51    28    29 ar  
    52    28    52 1   
    53    29    30 ar  
    54    29    53 1   
    55    30    31 ar  
    56    30    54 1   
    57    31    32 ar  
    58    31    55 1   
    59    32    56 1   
@<TRIPOS>SUBSTRUCTURE
     1 5KP         1 TEMP              0 ****  ****    0 ROOT
