@<TRIPOS>MOLECULE
5KP
   56    59     1     0     0
SMALL
abcg2


@<TRIPOS>ATOM
      1 CBE         -1.9960    12.0550   -23.7360 c3         1 5KP      -0.045800
      2 CAZ         -1.8500    11.7380   -22.2790 ca         1 5KP      -0.042300
      3 CBA         -2.3000    10.5290   -21.7390 ca         1 5KP       0.128000
      4 CL1         -2.9740     9.3080   -22.8070 cl         1 5KP      -0.215000
      5 CBB         -2.2470    10.2360   -20.3840 ca         1 5KP      -0.104000
      6 CBC         -1.7180    11.1780   -19.5120 ca         1 5KP      -0.097000
      7 CBD         -1.2270    12.3760   -20.0080 ca         1 5KP      -0.127000
      8 CAY         -1.2820    12.6470   -21.3720 ca         1 5KP      -0.039000
      9 NAW         -0.7630    13.8900   -21.8270 ns         1 5KP      -0.170000
     10 CAV          0.3260    14.0100   -22.6340 c          1 5KP       0.592100
     11 OAX          0.8970    13.0400   -23.1220 o          1 5KP      -0.578100
     12 CAU          0.7960    15.4310   -22.8890 c3         1 5KP      -0.150400
     13 CAT          1.0800    15.6880   -24.3690 c3         1 5KP      -0.087400
     14 CAS         -0.1960    15.6510   -25.2050 c3         1 5KP       0.116000
     15 NAA          0.0730    15.8320   -26.6310 n          1 5KP      -0.164800
     16 CAF          0.0210    17.0990   -27.1750 c          1 5KP       0.477500
     17 OAJ         -0.2520    18.0970   -26.5040 o          1 5KP      -0.531000
     18 NAB          0.4040    14.6660   -27.2730 nc         1 5KP      -0.444300
     19 CAC          0.6890    14.6720   -28.5390 cd         1 5KP       0.430900
     20 CAL          1.0350    13.3600   -29.1700 c3         1 5KP      -0.116400
     21 CAD          0.6530    15.9010   -29.2720 cd         1 5KP      -0.265900
     22 CAG          0.8720    16.2850   -30.5970 cc         1 5KP      -0.083300
     23 CAK          1.2980    15.5070   -31.7910 c3         1 5KP      -0.033800
     24 CAE          0.3180    17.0930   -28.5950 cd         1 5KP       0.208500
     25 NAI          0.3150    18.1460   -29.4030 nc         1 5KP      -0.437800
     26 NAH          0.6460    17.6290   -30.6130 na         1 5KP       0.227000
     27 CAM          0.7290    18.5080   -31.7330 ca         1 5KP      -0.004200
     28 CAN          0.0220    18.2200   -32.8950 ca         1 5KP      -0.094000
     29 CAO          0.1080    19.0900   -33.9750 ca         1 5KP      -0.102000
     30 CAP          0.8830    20.2410   -33.8870 ca         1 5KP      -0.100000
     31 CAQ          1.5780    20.5250   -32.7150 ca         1 5KP      -0.102000
     32 CAR          1.5060    19.6570   -31.6320 ca         1 5KP      -0.094000
     33 H1          -2.9500    11.6910   -24.1160 hc         1 5KP       0.055367
     34 H2          -1.9430    13.1280   -23.9020 hc         1 5KP       0.055367
     35 H3          -1.2030    11.5860   -24.3230 hc         1 5KP       0.055367
     36 H4          -2.6160     9.2870   -20.0220 ha         1 5KP       0.131000
     37 H5          -1.6750    10.9670   -18.4510 ha         1 5KP       0.120000
     38 H6          -0.7860    13.1090   -19.3440 ha         1 5KP       0.117000
     39 H7          -1.0870    14.7210   -21.3550 hn         1 5KP       0.151000
     40 H8           1.7190    15.5600   -22.3160 hc         1 5KP       0.061200
     41 H9           0.0730    16.1530   -22.5060 hc         1 5KP       0.061200
     42 H10          1.7760    14.9350   -24.7410 hc         1 5KP       0.067200
     43 H11          1.5570    16.6630   -24.4790 hc         1 5KP       0.067200
     44 H12         -0.8800    16.4380   -24.8930 h1         1 5KP       0.067700
     45 H13         -0.6980    14.6910   -25.1060 h1         1 5KP       0.067700
     46 H14          0.9320    12.5590   -28.4400 hc         1 5KP       0.054367
     47 H15          0.3820    13.1550   -30.0200 hc         1 5KP       0.054367
     48 H16          2.0630    13.3680   -29.5410 hc         1 5KP       0.054367
     49 H17          1.9290    14.6750   -31.4880 hc         1 5KP       0.059700
     50 H18          0.4370    15.1000   -32.3250 hc         1 5KP       0.059700
     51 H19          1.8580    16.1330   -32.4840 hc         1 5KP       0.059700
     52 H20         -0.5970    17.3350   -32.9480 ha         1 5KP       0.133000
     53 H21         -0.4410    18.8700   -34.8810 ha         1 5KP       0.122500
     54 H22          0.9440    20.9190   -34.7290 ha         1 5KP       0.120000
     55 H23          2.1830    21.4190   -32.6430 ha         1 5KP       0.122500
     56 H24          2.0470    19.8600   -30.7180 ha         1 5KP       0.133000
@<TRIPOS>BOND
     1     1     2 1   
     2     1    33 1   
     3     1    34 1   
     4     1    35 1   
     5     2     3 ar  
     6     2     8 ar  
     7     3     4 1   
     8     3     5 ar  
     9     5     6 ar  
    10     5    36 1   
    11     6     7 ar  
    12     6    37 1   
    13     7     8 ar  
    14     7    38 1   
    15     8     9 1   
    16     9    10 1   
    17     9    39 1   
    18    10    11 2   
    19    10    12 1   
    20    12    13 1   
    21    12    40 1   
    22    12    41 1   
    23    13    14 1   
    24    13    42 1   
    25    13    43 1   
    26    14    15 1   
    27    14    44 1   
    28    14    45 1   
    29    15    16 1   
    30    15    18 1   
    31    16    17 2   
    32    16    24 1   
    33    18    19 2   
    34    19    20 1   
    35    19    21 1   
    36    20    46 1   
    37    20    47 1   
    38    20    48 1   
    39    21    22 2   
    40    21    24 1   
    41    22    23 1   
    42    22    26 1   
    43    23    49 1   
    44    23    50 1   
    45    23    51 1   
    46    24    25 2   
    47    25    26 1   
    48    26    27 1   
    49    27    28 ar  
    50    27    32 ar  
    51    28    29 ar  
    52    28    52 1   
    53    29    30 ar  
    54    29    53 1   
    55    30    31 ar  
    56    30    54 1   
    57    31    32 ar  
    58    31    55 1   
    59    32    56 1   
@<TRIPOS>SUBSTRUCTURE
     1 5KP         1 TEMP              0 ****  ****    0 ROOT
