@<TRIPOS>MOLECULE
5KR
   46    48     1     0     0
SMALL
No Charge or Current Charge


@<TRIPOS>ATOM
      1 C10          1.4200     1.4890     0.1670 ca         1 5KR      -0.154600
      2 C13         -0.6110     2.8580    -1.2930 ca         1 5KR       0.030700
      3 C17          0.6040     2.4990    -1.9030 ca         1 5KR      -0.149000
      4 C20         -4.4430    -1.9410    -0.4000 ca         1 5KR      -0.044900
      5 C22          6.8820    -1.4550     0.1550 ca         1 5KR      -0.064000
      6 C24         -5.0940     0.3990    -0.4990 ca         1 5KR      -0.144500
      7 C26         -3.1830    -1.5680     0.0950 ca         1 5KR      -0.053500
      8 C28         -1.6530     3.5860    -2.1400 c3         1 5KR      -0.074800
      9 C02         -0.8150     2.5280     0.0720 ca         1 5KR      -0.292500
     10 C03          5.6870    -0.8230    -0.2620 ca         1 5KR      -0.196600
     11 C04          2.4740     0.7620     0.9830 c          1 5KR       0.611700
     12 N05          3.6240     0.3830     0.3020 ns         1 5KR      -0.157000
     13 C07          4.8300    -0.2480     0.7190 ca         1 5KR      -0.002000
     14 C08          0.2030     1.8530     0.7850 ca         1 5KR       0.012000
     15 O14          2.2920     0.5220     2.1720 o          1 5KR      -0.639100
     16 O15          5.7380    -1.7330    -2.4350 o          1 5KR      -0.709000
     17 C16          1.6080     1.8240    -1.1930 ca         1 5KR      -0.007000
     18 C18         -3.8370     0.7850    -0.0020 ca         1 5KR       0.322000
     19 O19          4.7510     0.1620    -2.1970 o          1 5KR      -0.709000
     20 C23         -2.8820    -0.2090     0.2920 ca         1 5KR      -0.144500
     21 C25         -5.4000    -0.9590    -0.6980 ca         1 5KR      -0.053500
     22 C27          5.2080    -0.2990     2.0800 ca         1 5KR      -0.171000
     23 C29          7.2350    -1.5060     1.5120 ca         1 5KR      -0.171000
     24 C30          6.4010    -0.9260     2.4740 ca         1 5KR      -0.105000
     25 H1           0.7790     2.7440    -2.9480 ha         1 5KR       0.116000
     26 H2           7.5480    -1.9040    -0.5800 ha         1 5KR       0.128000
     27 H3          -5.8380     1.1540    -0.7350 ha         1 5KR       0.127000
     28 H4          -2.4400    -2.3290     0.3250 ha         1 5KR       0.130500
     29 H5          -1.8650     4.5860    -1.7440 hc         1 5KR       0.055033
     30 H6          -1.3110     3.7230    -3.1720 hc         1 5KR       0.055033
     31 H7          -2.5930     3.0270    -2.1930 hc         1 5KR       0.055033
     32 H8           3.6150     0.5930    -0.6880 hn         1 5KR       0.233000
     33 H9          -4.3570     2.7870     0.0990 hn         1 5KR       0.498000
     34 H10          0.0480     1.6040     1.8340 ha         1 5KR       0.162000
     35 H12          2.5260     1.5790    -1.7210 ha         1 5KR       0.166000
     36 H13         -1.9040     0.0560     0.6750 ha         1 5KR       0.127000
     37 H14         -6.3770    -1.2460    -1.0830 ha         1 5KR       0.130500
     38 H15          4.5940     0.1550     2.8510 ha         1 5KR       0.131000
     39 H16          8.1590    -1.9920     1.8150 ha         1 5KR       0.091000
     40 H17          6.6780    -0.9570     3.5250 ha         1 5KR       0.088000
     41 S01         -2.3390     2.9390     0.9570 sy         1 5KR       1.160600
     42 C09          5.3600    -0.7970    -1.7450 c          1 5KR       0.725600
     43 N06         -3.5840     2.1410     0.1670 nu         1 5KR      -0.919100
     44 O11         -2.3300     2.3480     2.2970 o          1 5KR      -0.541500
     45 O12         -2.6870     4.3440     0.7390 o          1 5KR      -0.541500
     46 Br1         -4.8540    -3.7890    -0.6700 br         1 5KR      -0.107100
@<TRIPOS>BOND
     1     1    11 1   
     2     1    14 ar  
     3     1    17 ar  
     4     2     3 ar  
     5     2     8 1   
     6     2     9 ar  
     7     3    17 ar  
     8     3    25 1   
     9     4     7 ar  
    10     4    21 ar  
    11     4    46 1   
    12     5    10 ar  
    13     5    23 ar  
    14     5    26 1   
    15     6    18 ar  
    16     6    21 ar  
    17     6    27 1   
    18     7    20 ar  
    19     7    28 1   
    20     8    29 1   
    21     8    30 1   
    22     8    31 1   
    23     9    14 ar  
    24     9    41 1   
    25    10    13 ar  
    26    10    42 1   
    27    11    12 1   
    28    11    15 2   
    29    12    13 1   
    30    12    32 1   
    31    13    22 ar  
    32    14    34 1   
    33    16    42 1   
    34    17    35 1   
    35    18    20 ar  
    36    18    43 1   
    37    19    42 1   
    38    20    36 1   
    39    21    37 1   
    40    22    24 ar  
    41    22    38 1   
    42    23    24 ar  
    43    23    39 1   
    44    24    40 1   
    45    33    43 1   
    46    41    43 1   
    47    41    44 2   
    48    41    45 2   
@<TRIPOS>SUBSTRUCTURE
     1 5KR         1 TEMP              0 ****  ****    0 ROOT
