@<TRIPOS>MOLECULE
5KR
   46    48     1     0     0
SMALL
abcg2


@<TRIPOS>ATOM
      1 C10          1.4370     1.2730    -0.1170 ca         1 5KR      -0.154600
      2 C13         -0.5270     2.7100    -1.5760 ca         1 5KR       0.030700
      3 C17          0.6660     2.2950    -2.1600 ca         1 5KR      -0.149000
      4 C20         -4.7730    -1.8070     0.3140 ca         1 5KR      -0.044900
      5 C22          7.0530    -0.9490     0.3900 ca         1 5KR      -0.064000
      6 C24         -5.2110     0.5270     0.0090 ca         1 5KR      -0.144500
      7 C26         -3.4090    -1.5580     0.3050 ca         1 5KR      -0.053500
      8 C28         -1.5210     3.4690    -2.4000 c3         1 5KR      -0.074800
      9 C02         -0.7120     2.3590    -0.2310 ca         1 5KR      -0.292500
     10 C03          5.9330    -0.2650    -0.0720 ca         1 5KR      -0.196600
     11 C04          2.4090     0.4980     0.7230 c          1 5KR       0.611700
     12 N05          3.6570     0.4150     0.2260 ns         1 5KR      -0.157000
     13 C07          4.7610    -0.2800     0.7190 ca         1 5KR      -0.002000
     14 C08          0.2460     1.6600     0.4850 ca         1 5KR       0.012000
     15 O14          2.0360     0.0050     1.7790 o          1 5KR      -0.639100
     16 O15          7.0900     0.3200    -2.0490 o          1 5KR      -0.709000
     17 C16          1.6300     1.5910    -1.4570 ca         1 5KR      -0.007000
     18 C18         -3.8440     0.7910    -0.0050 ca         1 5KR       0.322000
     19 O19          5.0530     1.1530    -1.7790 o          1 5KR      -0.709000
     20 C23         -2.9460    -0.2630     0.1350 ca         1 5KR      -0.144500
     21 C25         -5.6790    -0.7680     0.1580 ca         1 5KR      -0.053500
     22 C27          4.7580    -0.9780     1.9310 ca         1 5KR      -0.171000
     23 C29          7.0510    -1.6380     1.5910 ca         1 5KR      -0.171000
     24 C30          5.8940    -1.6470     2.3560 ca         1 5KR      -0.105000
     25 H1           0.8440     2.5300    -3.2010 ha         1 5KR       0.116000
     26 H2           7.9470    -0.9350    -0.2180 ha         1 5KR       0.128000
     27 H3          -5.9210     1.3370    -0.0940 ha         1 5KR       0.127000
     28 H4          -2.6940    -2.3620     0.4160 ha         1 5KR       0.130500
     29 H5          -1.7900     4.4190    -1.9420 hc         1 5KR       0.055033
     30 H6          -1.1080     3.6750    -3.3850 hc         1 5KR       0.055033
     31 H7          -2.4410     2.9010    -2.5370 hc         1 5KR       0.055033
     32 H8           3.9300     0.9030    -0.6510 hn         1 5KR       0.233000
     33 H9          -4.1290     2.7770    -0.4720 hn         1 5KR       0.498000
     34 H10          0.0730     1.3990     1.5200 ha         1 5KR       0.162000
     35 H12          2.5210     1.2860    -1.9900 ha         1 5KR       0.166000
     36 H13         -1.8770    -0.1050     0.0940 ha         1 5KR       0.127000
     37 H14         -6.7450    -0.9480     0.1620 ha         1 5KR       0.130500
     38 H15          3.8740    -0.9980     2.5450 ha         1 5KR       0.131000
     39 H16          7.9370    -2.1620     1.9240 ha         1 5KR       0.091000
     40 H17          5.8670    -2.1800     3.2980 ha         1 5KR       0.088000
     41 S01         -2.1840     2.8200     0.6500 sy         1 5KR       1.160600
     42 C09          6.0410     0.4570    -1.4110 c          1 5KR       0.725600
     43 N06         -3.4120     2.1090    -0.2130 nu         1 5KR      -0.919100
     44 O11         -2.1140     2.2300     1.9750 o          1 5KR      -0.541500
     45 O12         -2.4020     4.2500     0.5140 o          1 5KR      -0.541500
     46 BR1         -5.4020    -3.5720     0.5340 br         1 5KR      -0.107100
@<TRIPOS>BOND
     1     1    11 1   
     2     1    14 ar  
     3     1    17 ar  
     4     2     3 ar  
     5     2     8 1   
     6     2     9 ar  
     7     3    17 ar  
     8     3    25 1   
     9     4     7 ar  
    10     4    21 ar  
    11     4    46 1   
    12     5    10 ar  
    13     5    23 ar  
    14     5    26 1   
    15     6    18 ar  
    16     6    21 ar  
    17     6    27 1   
    18     7    20 ar  
    19     7    28 1   
    20     8    29 1   
    21     8    30 1   
    22     8    31 1   
    23     9    14 ar  
    24     9    41 1   
    25    10    13 ar  
    26    10    42 1   
    27    11    12 1   
    28    11    15 2   
    29    12    13 1   
    30    12    32 1   
    31    13    22 ar  
    32    14    34 1   
    33    16    42 1   
    34    17    35 1   
    35    18    20 ar  
    36    18    43 1   
    37    19    42 1   
    38    20    36 1   
    39    21    37 1   
    40    22    24 ar  
    41    22    38 1   
    42    23    24 ar  
    43    23    39 1   
    44    24    40 1   
    45    33    43 1   
    46    41    43 1   
    47    41    44 2   
    48    41    45 2   
@<TRIPOS>SUBSTRUCTURE
     1 5KR         1 TEMP              0 ****  ****    0 ROOT
