@<TRIPOS>MOLECULE
5KS
   75    80     1     0     0
SMALL
abcg2


@<TRIPOS>ATOM
      1 C6          -2.2440     3.2200     2.9320 c3         1 5KS       0.172600
      2 C5          -2.3900     2.6040     1.5590 c6         1 5KS       0.153300
      3 S1           0.0050    -0.0920     0.0000 ss         1 5KS      -0.366000
      4 C2          -2.6720     0.3680    -0.2480 c6         1 5KS       0.151800
      5 N3          -7.0040     0.7090    -1.2340 nc         1 5KS      -0.354000
      6 C4          -3.7790     2.0170     1.3300 c6         1 5KS       0.130800
      7 C8           2.4080     2.6100    -1.5360 c6         1 5KS       0.153300
      8 C10          3.7960     2.0190    -1.3100 c6         1 5KS       0.130800
      9 N4           7.0160     0.6860     1.2460 nc         1 5KS      -0.354000
     10 C9           2.6840     0.3610     0.2540 c6         1 5KS       0.151800
     11 N1           5.1000     0.7760     0.3680 na         1 5KS       0.134800
     12 C7           2.2650     3.2380    -2.9040 c3         1 5KS       0.172600
     13 O6          -1.0030     3.8810     2.9950 oh         1 5KS      -0.712000
     14 O5          -1.4080     1.5920     1.4140 os         1 5KS      -0.411000
     15 O4          -4.0730     1.0590     2.3150 oh         1 5KS      -0.706000
     16 C3          -3.7990     1.3830    -0.0670 c6         1 5KS       0.065300
     17 N5          -5.0870     0.7890    -0.3560 na         1 5KS       0.134800
     18 N2          -5.9310     1.4110    -1.1640 nd         1 5KS      -0.196800
     19 CB          -6.8720    -0.3950    -0.4640 cc         1 5KS       0.254500
     20 CA          -5.6250    -0.3480     0.1140 cd         1 5KS      -0.191000
     21 CD          -7.9260    -1.3990    -0.3410 ca         1 5KS      -0.120500
     22 CI          -9.0910    -1.2970    -1.1030 ca         1 5KS      -0.068500
     23 CH         -10.0970    -2.2430    -0.9990 ca         1 5KS      -0.154500
     24 CG          -9.9290    -3.2980    -0.1220 ca         1 5KS       0.173000
     25 CF          -8.7920    -3.4320     0.6500 ca         1 5KS      -0.154500
     26 CE          -7.7950    -2.4770     0.5350 ca         1 5KS      -0.068500
     27 O2          -2.6980    -0.0460    -1.5820 oh         1 5KS      -0.700000
     28 C1          -1.3630     1.0830     0.1150 c6         1 5KS       0.260800
     29 C20          1.3760     1.0810    -0.1050 c6         1 5KS       0.260800
     30 O3           1.4240     1.5990    -1.4000 os         1 5KS      -0.411000
     31 O1           1.0250     3.9000    -2.9630 oh         1 5KS      -0.712000
     32 O8           2.7070    -0.0650     1.5850 oh         1 5KS      -0.700000
     33 C11          3.8130     1.3740     0.0820 c6         1 5KS       0.065300
     34 O7           4.0890     1.0680    -2.3020 oh         1 5KS      -0.706000
     35 N6           5.9440     1.3900     1.1810 nd         1 5KS      -0.196800
     36 C12          6.8820    -0.4120     0.4670 cc         1 5KS       0.254500
     37 C13          5.6350    -0.3590    -0.1100 cd         1 5KS      -0.191000
     38 C14          7.9350    -1.4160     0.3360 ca         1 5KS      -0.120500
     39 C15          9.1010    -1.3210     1.0970 ca         1 5KS      -0.068500
     40 C16         10.1070    -2.2670     0.9850 ca         1 5KS      -0.154500
     41 C17          9.9360    -3.3160     0.1030 ca         1 5KS       0.173000
     42 C18          8.7970    -3.4440    -0.6690 ca         1 5KS      -0.154500
     43 C19          7.8010    -2.4880    -0.5470 ca         1 5KS      -0.068500
     44 F           10.9050    -4.2380    -0.0080 f          1 5KS      -0.179000
     45 H1          -3.0820     3.9140     3.0770 h1         1 5KS       0.035950
     46 H2          -2.3320     2.4410     3.6970 h1         1 5KS       0.035950
     47 H3          -2.2360     3.3900     0.8020 h1         1 5KS       0.060700
     48 H4          -2.8100    -0.4690     0.4500 h1         1 5KS       0.067700
     49 H5          -4.5030     2.8390     1.3400 h1         1 5KS       0.061700
     50 H7           4.5220     2.8400    -1.3130 h1         1 5KS       0.061700
     51 H8           2.8210    -0.4720    -0.4510 h1         1 5KS       0.067700
     52 H9           3.1040     3.9320    -3.0430 h1         1 5KS       0.035950
     53 H10          2.3530     2.4650    -3.6750 h1         1 5KS       0.035950
     54 H11         -0.9220     4.2760     3.8680 ho         1 5KS       0.510000
     55 H12         -4.9630     1.2080     2.6440 ho         1 5KS       0.514000
     56 H13         -3.6700     2.1780    -0.8060 h1         1 5KS       0.110700
     57 H14         -5.1050    -1.0170     0.7770 h4         1 5KS       0.174500
     58 H15         -9.2160    -0.4710    -1.7900 ha         1 5KS       0.125000
     59 H16        -10.9980    -2.1610    -1.5930 ha         1 5KS       0.132500
     60 H17         -8.6840    -4.2650     1.3320 ha         1 5KS       0.132500
     61 H18         -6.9070    -2.5810     1.1460 ha         1 5KS       0.125000
     62 H19         -2.1120    -0.8020    -1.6920 ho         1 5KS       0.527000
     63 H20         -1.1800     1.8790    -0.6230 h2         1 5KS       0.087700
     64 H21          1.1940     1.8720     0.6380 h2         1 5KS       0.087700
     65 H22          0.9450     4.3020    -3.8330 ho         1 5KS       0.510000
     66 H23          2.1220    -0.8220     1.6870 ho         1 5KS       0.527000
     67 H24          3.6840     2.1630     0.8280 h1         1 5KS       0.110700
     68 H25          4.9800     1.2180    -2.6280 ho         1 5KS       0.514000
     69 H26          5.1140    -1.0220    -0.7780 h4         1 5KS       0.174500
     70 H27          9.2280    -0.4990     1.7890 ha         1 5KS       0.125000
     71 H28         11.0080    -2.1890     1.5790 ha         1 5KS       0.132500
     72 H29          8.6880    -4.2730    -1.3550 ha         1 5KS       0.132500
     73 H30          6.9120    -2.5880    -1.1560 ha         1 5KS       0.125000
     74 F1         -10.8990    -4.2200    -0.0190 f          1 5KS      -0.179000
     75 H6           2.2540     3.3910    -0.7730 h1         1 5KS       0.060700
@<TRIPOS>BOND
     1     1     2 1   
     2     1    13 1   
     3     1    45 1   
     4     1    46 1   
     5     2     6 1   
     6     2    14 1   
     7     2    47 1   
     8     3    28 1   
     9     3    29 1   
    10     4    16 1   
    11     4    27 1   
    12     4    28 1   
    13     4    48 1   
    14     5    18 2   
    15     5    19 1   
    16     6    15 1   
    17     6    16 1   
    18     6    49 1   
    19     7     8 1   
    20     7    12 1   
    21     7    30 1   
    22     7    75 1   
    23     8    33 1   
    24     8    34 1   
    25     8    50 1   
    26     9    35 2   
    27     9    36 1   
    28    10    29 1   
    29    10    32 1   
    30    10    33 1   
    31    10    51 1   
    32    11    33 1   
    33    11    35 1   
    34    11    37 1   
    35    12    31 1   
    36    12    52 1   
    37    12    53 1   
    38    13    54 1   
    39    14    28 1   
    40    15    55 1   
    41    16    17 1   
    42    16    56 1   
    43    17    18 1   
    44    17    20 1   
    45    19    20 2   
    46    19    21 1   
    47    20    57 1   
    48    21    22 ar  
    49    21    26 ar  
    50    22    23 ar  
    51    22    58 1   
    52    23    24 ar  
    53    23    59 1   
    54    24    25 ar  
    55    24    74 1   
    56    25    26 ar  
    57    25    60 1   
    58    26    61 1   
    59    27    62 1   
    60    28    63 1   
    61    29    30 1   
    62    29    64 1   
    63    31    65 1   
    64    32    66 1   
    65    33    67 1   
    66    34    68 1   
    67    36    37 2   
    68    36    38 1   
    69    37    69 1   
    70    38    39 ar  
    71    38    43 ar  
    72    39    40 ar  
    73    39    70 1   
    74    40    41 ar  
    75    40    71 1   
    76    41    42 ar  
    77    41    44 1   
    78    42    43 ar  
    79    42    72 1   
    80    43    73 1   
@<TRIPOS>SUBSTRUCTURE
     1 5KS         1 TEMP              0 ****  ****    0 ROOT
