@<TRIPOS>MOLECULE
5KS
   75    80     1     0     0
SMALL
No Charge or Current Charge


@<TRIPOS>ATOM
      1 C6          -2.2110     3.6340     2.4050 c3         1 5KS       0.172600
      2 C5          -2.3960     2.7830     1.1060 c6         1 5KS       0.153300
      3 S1           0.0060    -0.2530     0.0010 ss         1 5KS      -0.366000
      4 C2          -2.7630     0.2750    -0.3780 c6         1 5KS       0.151800
      5 N3          -7.2660     0.6890    -1.3460 nc         1 5KS      -0.354000
      6 C4          -3.8380     2.1950     0.9590 c6         1 5KS       0.130800
      7 C8           2.4130     2.7860    -1.0810 c6         1 5KS       0.153300
      8 C10          3.8550     2.1950    -0.9390 c6         1 5KS       0.130800
      9 N4           7.2800     0.6660     1.3550 nc         1 5KS      -0.354000
     10 C9           2.7760     0.2670     0.3850 c6         1 5KS       0.151800
     11 N1           5.2580     0.7750     0.5950 na         1 5KS       0.134800
     12 C7           2.2300     3.6480    -2.3740 c3         1 5KS       0.172600
     13 O6          -0.8920     4.2080     2.5230 oh         1 5KS      -0.712000
     14 O5          -1.4180     1.7120     1.1100 os         1 5KS      -0.411000
     15 O4          -4.1930     1.3830     2.1030 oh         1 5KS      -0.706000
     16 C3          -3.8910     1.3560    -0.3570 c6         1 5KS       0.065300
     17 N5          -5.2440     0.7890    -0.5850 na         1 5KS       0.134800
     18 N2          -6.1860     1.4310    -1.3540 nd         1 5KS      -0.196800
     19 CB          -7.0130    -0.4050    -0.5710 cc         1 5KS       0.254500
     20 CA          -5.7490    -0.3870    -0.0680 cd         1 5KS      -0.191000
     21 CD          -7.9650    -1.4970    -0.3060 ca         1 5KS      -0.120500
     22 CI          -9.1900    -1.5500    -1.0110 ca         1 5KS      -0.068500
     23 CH         -10.1200    -2.5750    -0.7590 ca         1 5KS      -0.154500
     24 CG          -9.8380    -3.5530     0.2040 ca         1 5KS       0.173000
     25 CF          -8.6350    -3.5110     0.9200 ca         1 5KS      -0.154500
     26 CE          -7.7030    -2.4870     0.6710 ca         1 5KS      -0.068500
     27 O2          -2.7590    -0.4400    -1.6350 oh         1 5KS      -0.700000
     28 C1          -1.3810     0.9600    -0.1180 c6         1 5KS       0.260800
     29 C20          1.3960     0.9560     0.1300 c6         1 5KS       0.260800
     30 O3           1.4330     1.7180    -1.0930 os         1 5KS      -0.411000
     31 O1           0.9120     4.2240    -2.4880 oh         1 5KS      -0.712000
     32 O8           2.7710    -0.4560     1.6370 oh         1 5KS      -0.700000
     33 C11          3.9060     1.3460     0.3720 c6         1 5KS       0.065300
     34 O7           4.2080     1.3910    -2.0880 oh         1 5KS      -0.706000
     35 N6           6.2010     1.4100     1.3680 nd         1 5KS      -0.196800
     36 C12          7.0240    -0.4230     0.5730 cc         1 5KS       0.254500
     37 C13          5.7610    -0.3980     0.0700 cd         1 5KS      -0.191000
     38 C14          7.9750    -1.5140     0.3000 ca         1 5KS      -0.120500
     39 C15          9.2000    -1.5740     1.0040 ca         1 5KS      -0.068500
     40 C16         10.1270    -2.6000     0.7450 ca         1 5KS      -0.154500
     41 C17          9.8440    -3.5700    -0.2250 ca         1 5KS       0.173000
     42 C18          8.6410    -3.5200    -0.9410 ca         1 5KS      -0.154500
     43 C19          7.7100    -2.4970    -0.6850 ca         1 5KS      -0.068500
     44 F           10.7360    -4.5540    -0.4740 f          1 5KS      -0.179000
     45 H1          -2.9670     4.4310     2.4000 h1         1 5KS       0.035950
     46 H2          -2.4180     2.9930     3.2720 h1         1 5KS       0.035950
     47 H3          -2.1890     3.4420     0.2500 h1         1 5KS       0.060700
     48 H4          -2.9400    -0.4290     0.4490 h1         1 5KS       0.067700
     49 H5          -4.5410     3.0380     0.8640 h1         1 5KS       0.061700
     50 H7           4.5590     3.0360    -0.8370 h1         1 5KS       0.061700
     51 H8           2.9510    -0.4310    -0.4480 h1         1 5KS       0.067700
     52 H9           2.9880     4.4430    -2.3630 h1         1 5KS       0.035950
     53 H10          2.4360     3.0120    -3.2460 h1         1 5KS       0.035950
     54 H11         -0.8530     4.6590     3.3990 ho         1 5KS       0.510000
     55 H12         -5.1720     1.4340     2.2130 ho         1 5KS       0.514000
     56 H13         -3.6940     2.0420    -1.1920 h1         1 5KS       0.110700
     57 H14         -5.1970    -1.0660     0.5650 h4         1 5KS       0.174500
     58 H15         -9.4270    -0.7990    -1.7610 ha         1 5KS       0.125000
     59 H16        -11.0570    -2.6100    -1.3090 ha         1 5KS       0.132500
     60 H17         -8.4260    -4.2690     1.6710 ha         1 5KS       0.132500
     61 H18         -6.7820    -2.4730     1.2490 ha         1 5KS       0.125000
     62 H19         -2.0140    -1.0850    -1.5960 ho         1 5KS       0.527000
     63 H20         -1.1450     1.6320    -0.9580 h2         1 5KS       0.087700
     64 H21          1.1610     1.6230     0.9740 h2         1 5KS       0.087700
     65 H22          0.8740     4.6820    -3.3600 ho         1 5KS       0.510000
     66 H23          2.0240    -1.1000     1.5930 ho         1 5KS       0.527000
     67 H24          3.7100     2.0270     1.2120 h1         1 5KS       0.110700
     68 H25          5.1870     1.4410    -2.1980 ho         1 5KS       0.514000
     69 H26          5.2080    -1.0720    -0.5680 h4         1 5KS       0.174500
     70 H27          9.4380    -0.8290     1.7600 ha         1 5KS       0.125000
     71 H28         11.0640    -2.6410     1.2950 ha         1 5KS       0.132500
     72 H29          8.4300    -4.2730    -1.6970 ha         1 5KS       0.132500
     73 H30          6.7900    -2.4770    -1.2630 ha         1 5KS       0.125000
     74 F1         -10.7320    -4.5360     0.4460 f          1 5KS      -0.179000
     75 H6           2.2080     3.4400    -0.2200 h1         1 5KS       0.060700
@<TRIPOS>BOND
     1     1     2 1   
     2     1    13 1   
     3     1    45 1   
     4     1    46 1   
     5     2     6 1   
     6     2    14 1   
     7     2    47 1   
     8     3    28 1   
     9     3    29 1   
    10     4    16 1   
    11     4    27 1   
    12     4    28 1   
    13     4    48 1   
    14     5    18 2   
    15     5    19 1   
    16     6    15 1   
    17     6    16 1   
    18     6    49 1   
    19     7     8 1   
    20     7    12 1   
    21     7    30 1   
    22     7    75 1   
    23     8    33 1   
    24     8    34 1   
    25     8    50 1   
    26     9    35 2   
    27     9    36 1   
    28    10    29 1   
    29    10    32 1   
    30    10    33 1   
    31    10    51 1   
    32    11    33 1   
    33    11    35 1   
    34    11    37 1   
    35    12    31 1   
    36    12    52 1   
    37    12    53 1   
    38    13    54 1   
    39    14    28 1   
    40    15    55 1   
    41    16    17 1   
    42    16    56 1   
    43    17    18 1   
    44    17    20 1   
    45    19    20 2   
    46    19    21 1   
    47    20    57 1   
    48    21    22 ar  
    49    21    26 ar  
    50    22    23 ar  
    51    22    58 1   
    52    23    24 ar  
    53    23    59 1   
    54    24    25 ar  
    55    24    74 1   
    56    25    26 ar  
    57    25    60 1   
    58    26    61 1   
    59    27    62 1   
    60    28    63 1   
    61    29    30 1   
    62    29    64 1   
    63    31    65 1   
    64    32    66 1   
    65    33    67 1   
    66    34    68 1   
    67    36    37 2   
    68    36    38 1   
    69    37    69 1   
    70    38    39 ar  
    71    38    43 ar  
    72    39    40 ar  
    73    39    70 1   
    74    40    41 ar  
    75    40    71 1   
    76    41    42 ar  
    77    41    44 1   
    78    42    43 ar  
    79    42    72 1   
    80    43    73 1   
@<TRIPOS>SUBSTRUCTURE
     1 5KS         1 TEMP              0 ****  ****    0 ROOT
