@<TRIPOS>MOLECULE
5KT
   69    74     1     0     0
SMALL
No Charge or Current Charge


@<TRIPOS>ATOM
      1 C6          -2.2360     3.4840     2.3400 c3         1 5KT       0.172600
      2 C5          -2.4100     2.6160     1.0510 c6         1 5KT       0.154800
      3 S1           0.0080    -0.4250    -0.0010 ss         1 5KT      -0.368000
      4 C2          -2.7600     0.0890    -0.4050 c6         1 5KT       0.151300
      5 N3          -7.2620     0.4780    -1.3900 nc         1 5KT      -0.352000
      6 C4          -3.8500     2.0220     0.9030 c6         1 5KT       0.130800
      7 C8           2.4100     2.6110    -1.1020 c6         1 5KT       0.154800
      8 C10          3.8530     2.0270    -0.9450 c6         1 5KT       0.130800
      9 N4           7.2740     0.5370     1.3720 nc         1 5KT      -0.352000
     10 C9           2.7740     0.1090     0.3930 c6         1 5KT       0.151300
     11 N1           5.2520     0.6280     0.6120 na         1 5KT       0.132800
     12 C7           2.2320     3.4580    -2.4050 c3         1 5KT       0.172600
     13 O6          -0.9200     4.0640     2.4590 oh         1 5KT      -0.712500
     14 O5          -1.4290     1.5490     1.0740 os         1 5KT      -0.412000
     15 O4          -4.2090     1.2230     2.0560 oh         1 5KT      -0.706000
     16 C3          -3.8920     1.1660    -0.4030 c6         1 5KT       0.065300
     17 N5          -5.2420     0.5920    -0.6310 na         1 5KT       0.132800
     18 N2          -6.1860     1.2240    -1.4040 nd         1 5KT      -0.200800
     19 CB          -7.0070    -0.6140    -0.6110 cc         1 5KT       0.275500
     20 CD          -7.9490    -1.6740    -0.3440 cc         1 5KT      -0.125500
     21 CF          -9.2670    -1.7060    -0.8690 cc         1 5KT      -0.098000
     22 CE          -7.6530    -2.7570     0.4500 cd         1 5KT      -0.250000
     23 S2          -9.0320    -3.8660     0.5670 ss         1 5KT       0.207500
     24 CG          -9.9880    -2.8070    -0.4850 cd         1 5KT      -0.252500
     25 CA          -5.7450    -0.5810    -0.1070 cd         1 5KT      -0.193500
     26 O2          -2.7460    -0.6400    -1.6530 oh         1 5KT      -0.699000
     27 C1          -1.3830     0.7810    -0.1450 c6         1 5KT       0.262300
     28 C18          1.3920     0.7910     0.1220 c6         1 5KT       0.262300
     29 O3           1.4350     1.5390    -1.1090 os         1 5KT      -0.412000
     30 O1           0.9130     4.0290    -2.5330 oh         1 5KT      -0.712500
     31 O8           2.7630    -0.6000     1.6530 oh         1 5KT      -0.699000
     32 C11          3.9000     1.1920     0.3750 c6         1 5KT       0.065300
     33 O7           4.2160     1.2120    -2.0850 oh         1 5KT      -0.706000
     34 N6           6.1930     1.2780     1.3750 nd         1 5KT      -0.200800
     35 C12          7.0240    -0.5690     0.6100 cc         1 5KT       0.275500
     36 C17          5.7620    -0.5500     0.1060 cd         1 5KT      -0.193500
     37 C13          7.9710    -1.6270     0.3600 cc         1 5KT      -0.125500
     38 C14          9.2900    -1.6450     0.8860 cc         1 5KT      -0.098000
     39 C15          7.6810    -2.7250    -0.4160 cd         1 5KT      -0.250000
     40 S3           9.0660    -3.8290    -0.5160 ss         1 5KT       0.207500
     41 C16         10.0150    -2.7480     0.5190 cd         1 5KT      -0.252500
     42 H1          -2.9950     4.2780     2.3210 h1         1 5KT       0.036200
     43 H2          -2.4460     2.8530     3.2150 h1         1 5KT       0.036200
     44 H3          -2.2010     3.2660     0.1880 h1         1 5KT       0.060700
     45 H4          -2.9400    -0.6060     0.4300 h1         1 5KT       0.067700
     46 H5          -4.5550     2.8610     0.7940 h1         1 5KT       0.060700
     47 H7           4.5540     2.8710    -0.8490 h1         1 5KT       0.060700
     48 H8           2.9570    -0.5980    -0.4300 h1         1 5KT       0.067700
     49 H9           2.9870     4.2560    -2.3990 h1         1 5KT       0.036200
     50 H10          2.4460     2.8140    -3.2690 h1         1 5KT       0.036200
     51 H11         -0.8880     4.5260     3.3290 ho         1 5KT       0.509500
     52 H12         -5.1910     1.2430     2.1380 ho         1 5KT       0.514000
     53 H13         -3.6930     1.8430    -1.2450 h1         1 5KT       0.109700
     54 H14         -9.6580    -0.9240    -1.5150 ha         1 5KT       0.152000
     55 H15         -6.7340    -2.9880     0.9720 h4         1 5KT       0.146000
     56 H16        -11.0060    -3.0680    -0.7440 h4         1 5KT       0.151000
     57 H17         -5.2000    -1.2540     0.5400 h4         1 5KT       0.174000
     58 H18         -2.0010    -1.2840    -1.6010 ho         1 5KT       0.526500
     59 H19         -1.1430     1.4440    -0.9910 h2         1 5KT       0.088700
     60 H20          1.1500     1.4660     0.9580 h2         1 5KT       0.088700
     61 H21          0.8780     4.4770    -3.4110 ho         1 5KT       0.509500
     62 H22          2.0210    -1.2480     1.6120 ho         1 5KT       0.526500
     63 H23          3.6970     1.8820     1.2060 h1         1 5KT       0.109700
     64 H24          5.1980     1.2350    -2.1670 ho         1 5KT       0.514000
     65 H25          5.2200    -1.2360    -0.5300 h4         1 5KT       0.174000
     66 H26          9.6770    -0.8500     1.5190 ha         1 5KT       0.152000
     67 H27          6.7620    -2.9680    -0.9350 h4         1 5KT       0.146000
     68 H28         11.0360    -3.0000     0.7820 h4         1 5KT       0.151000
     69 H6           2.1980     3.2730    -0.2500 h1         1 5KT       0.060700
@<TRIPOS>BOND
     1     1     2 1   
     2     1    13 1   
     3     1    42 1   
     4     1    43 1   
     5     2     6 1   
     6     2    14 1   
     7     2    44 1   
     8     3    27 1   
     9     3    28 1   
    10     4    16 1   
    11     4    26 1   
    12     4    27 1   
    13     4    45 1   
    14     5    18 2   
    15     5    19 1   
    16     6    15 1   
    17     6    16 1   
    18     6    46 1   
    19     7     8 1   
    20     7    12 1   
    21     7    29 1   
    22     7    69 1   
    23     8    32 1   
    24     8    33 1   
    25     8    47 1   
    26     9    34 2   
    27     9    35 1   
    28    10    28 1   
    29    10    31 1   
    30    10    32 1   
    31    10    48 1   
    32    11    32 1   
    33    11    34 1   
    34    11    36 1   
    35    12    30 1   
    36    12    49 1   
    37    12    50 1   
    38    13    51 1   
    39    14    27 1   
    40    15    52 1   
    41    16    17 1   
    42    16    53 1   
    43    17    18 1   
    44    17    25 1   
    45    19    20 1   
    46    19    25 2   
    47    20    21 1   
    48    20    22 2   
    49    21    24 2   
    50    21    54 1   
    51    22    23 1   
    52    22    55 1   
    53    23    24 1   
    54    24    56 1   
    55    25    57 1   
    56    26    58 1   
    57    27    59 1   
    58    28    29 1   
    59    28    60 1   
    60    30    61 1   
    61    31    62 1   
    62    32    63 1   
    63    33    64 1   
    64    35    36 2   
    65    35    37 1   
    66    36    65 1   
    67    37    38 1   
    68    37    39 2   
    69    38    41 2   
    70    38    66 1   
    71    39    40 1   
    72    39    67 1   
    73    40    41 1   
    74    41    68 1   
@<TRIPOS>SUBSTRUCTURE
     1 5KT         1 TEMP              0 ****  ****    0 ROOT
