@<TRIPOS>MOLECULE
5KT
   69    74     1     0     0
SMALL
abcg2


@<TRIPOS>ATOM
      1 C6          -2.3090     3.1590     2.7870 c3         1 5KT       0.172600
      2 C5          -2.4320     2.5020     1.4310 c6         1 5KT       0.154800
      3 S1           0.0050    -0.2160    -0.0200 ss         1 5KT      -0.368000
      4 C2          -2.6690     0.2180    -0.3190 c6         1 5KT       0.151300
      5 N3          -7.0100     0.4790    -1.3210 nc         1 5KT      -0.352000
      6 C4          -3.8130     1.8970     1.2000 c6         1 5KT       0.130800
      7 C8           2.4390     2.4970    -1.4860 c6         1 5KT       0.154800
      8 C10          3.8210     1.8990    -1.2410 c6         1 5KT       0.130800
      9 N4           7.0010     0.5210     1.3350 nc         1 5KT      -0.352000
     10 C9           2.6760     0.2340     0.2910 c6         1 5KT       0.151300
     11 N1           5.0900     0.6320     0.4450 na         1 5KT       0.132800
     12 C7           2.3220     3.1380    -2.8510 c3         1 5KT       0.172600
     13 O6          -1.0760     3.8350     2.8450 oh         1 5KT      -0.712500
     14 O5          -1.4400     1.4950     1.3280 os         1 5KT      -0.412000
     15 O4          -4.1090     0.9690     2.2120 oh         1 5KT      -0.706000
     16 C3          -3.8090     1.2240    -0.1790 c6         1 5KT       0.065300
     17 N5          -5.0860     0.6020    -0.4610 na         1 5KT       0.132800
     18 N2          -5.9480     1.2020    -1.2670 nd         1 5KT      -0.200800
     19 CB          -6.8480    -0.6150    -0.5410 cc         1 5KT       0.275500
     20 CD          -7.8820    -1.6280    -0.3990 cc         1 5KT      -0.125500
     21 CF          -9.1330    -1.5740    -1.0860 cc         1 5KT      -0.098000
     22 CE          -7.7860    -2.7360     0.3960 cd         1 5KT      -0.250000
     23 S2          -9.1930    -3.7030     0.3130 ss         1 5KT       0.207500
     24 CG          -9.9370    -2.6300    -0.7950 cd         1 5KT      -0.252500
     25 CA          -5.5980    -0.5400     0.0250 cd         1 5KT      -0.193500
     26 O2          -2.6720    -0.2320    -1.6420 oh         1 5KT      -0.699000
     27 C1          -1.3710     0.9530     0.0430 c6         1 5KT       0.262300
     28 C18          1.3760     0.9590    -0.0870 c6         1 5KT       0.262300
     29 O3           1.4500     1.4880    -1.3770 os         1 5KT      -0.412000
     30 O1           1.0870     3.8080    -2.9250 oh         1 5KT      -0.712500
     31 O8           2.6730    -0.2010     1.6190 oh         1 5KT      -0.699000
     32 C11          3.8120     1.2430     0.1460 c6         1 5KT       0.065300
     33 O7           4.1260     0.9570    -2.2370 oh         1 5KT      -0.706000
     34 N6           5.9360     1.2370     1.2630 nd         1 5KT      -0.200800
     35 C12          6.8590    -0.5750     0.5540 cc         1 5KT       0.275500
     36 C17          5.6170    -0.5080    -0.0320 cd         1 5KT      -0.193500
     37 C13          7.9010    -1.5810     0.4300 cc         1 5KT      -0.125500
     38 C14          9.1460    -1.5100     1.1270 cc         1 5KT      -0.098000
     39 C15          7.8200    -2.6970    -0.3560 cd         1 5KT      -0.250000
     40 S3           9.2340    -3.6520    -0.2520 ss         1 5KT       0.207500
     41 C16          9.9600    -2.5630     0.8530 cd         1 5KT      -0.252500
     42 H1          -3.1560     3.8470     2.9040 h1         1 5KT       0.036200
     43 H2          -2.3970     2.4010     3.5740 h1         1 5KT       0.036200
     44 H3          -2.2750     3.2680     0.6550 h1         1 5KT       0.060700
     45 H4          -2.8080    -0.6020     0.4000 h1         1 5KT       0.067700
     46 H5          -4.5430     2.7140     1.1770 h1         1 5KT       0.060700
     47 H7           4.5500     2.7170    -1.2250 h1         1 5KT       0.060700
     48 H8           2.8220    -0.5940    -0.4170 h1         1 5KT       0.067700
     49 H9           3.1680     3.8280    -2.9700 h1         1 5KT       0.036200
     50 H10          2.4190     2.3700    -3.6270 h1         1 5KT       0.036200
     51 H11         -1.0060     4.2500     3.7090 ho         1 5KT       0.509500
     52 H12         -5.0270     1.0740     2.4760 ho         1 5KT       0.514000
     53 H13         -3.6830     1.9990    -0.9400 h1         1 5KT       0.109700
     54 H14         -9.4140    -0.7800    -1.7620 ha         1 5KT       0.152000
     55 H15         -6.9620    -3.0320     1.0280 h4         1 5KT       0.146000
     56 H16        -10.9270    -2.8330    -1.1730 h4         1 5KT       0.151000
     57 H17         -5.0640    -1.1960     0.6900 h4         1 5KT       0.174000
     58 H18         -2.0940    -0.9980    -1.7200 ho         1 5KT       0.526500
     59 H19         -1.1830     1.7330    -0.7110 h2         1 5KT       0.088700
     60 H20          1.1800     1.7450     0.6580 h2         1 5KT       0.088700
     61 H21          1.0220     4.2110    -3.7960 ho         1 5KT       0.509500
     62 H22          2.0910    -0.9630     1.7050 ho         1 5KT       0.526500
     63 H23          3.6770     2.0270     0.8960 h1         1 5KT       0.109700
     64 H24          5.0300     1.0910    -2.5310 ho         1 5KT       0.514000
     65 H25          5.0990    -1.1670    -0.7070 h4         1 5KT       0.174000
     66 H26          9.4140    -0.7080     1.7980 ha         1 5KT       0.152000
     67 H27          7.0030    -3.0060    -0.9910 h4         1 5KT       0.146000
     68 H28         10.9480    -2.7540     1.2410 h4         1 5KT       0.151000
     69 H6           2.2750     3.2710    -0.7190 h1         1 5KT       0.060700
@<TRIPOS>BOND
     1     1     2 1   
     2     1    13 1   
     3     1    42 1   
     4     1    43 1   
     5     2     6 1   
     6     2    14 1   
     7     2    44 1   
     8     3    27 1   
     9     3    28 1   
    10     4    16 1   
    11     4    26 1   
    12     4    27 1   
    13     4    45 1   
    14     5    18 2   
    15     5    19 1   
    16     6    15 1   
    17     6    16 1   
    18     6    46 1   
    19     7     8 1   
    20     7    12 1   
    21     7    29 1   
    22     7    69 1   
    23     8    32 1   
    24     8    33 1   
    25     8    47 1   
    26     9    34 2   
    27     9    35 1   
    28    10    28 1   
    29    10    31 1   
    30    10    32 1   
    31    10    48 1   
    32    11    32 1   
    33    11    34 1   
    34    11    36 1   
    35    12    30 1   
    36    12    49 1   
    37    12    50 1   
    38    13    51 1   
    39    14    27 1   
    40    15    52 1   
    41    16    17 1   
    42    16    53 1   
    43    17    18 1   
    44    17    25 1   
    45    19    20 1   
    46    19    25 2   
    47    20    21 1   
    48    20    22 2   
    49    21    24 2   
    50    21    54 1   
    51    22    23 1   
    52    22    55 1   
    53    23    24 1   
    54    24    56 1   
    55    25    57 1   
    56    26    58 1   
    57    27    59 1   
    58    28    29 1   
    59    28    60 1   
    60    30    61 1   
    61    31    62 1   
    62    32    63 1   
    63    33    64 1   
    64    35    36 2   
    65    35    37 1   
    66    36    65 1   
    67    37    38 1   
    68    37    39 2   
    69    38    41 2   
    70    38    66 1   
    71    39    40 1   
    72    39    67 1   
    73    40    41 1   
    74    41    68 1   
@<TRIPOS>SUBSTRUCTURE
     1 5KT         1 TEMP              0 ****  ****    0 ROOT
