@<TRIPOS>MOLECULE
5KV
   31    31     1     0     0
SMALL
No Charge or Current Charge


@<TRIPOS>ATOM
      1 O13          0.5960     2.9970    -0.0130 oh         1 5KV      -0.737000
      2 C18         -1.3300     1.5000    -0.3460 c6         1 5KV       0.173300
      3 C19          0.1160     1.6510     0.2260 c6         1 5KV       0.082300
      4 C20          1.0490     0.5700    -0.4100 c6         1 5KV       0.158300
      5 C21         -1.8620     0.0310    -0.1500 c6         1 5KV       0.218500
      6 C22         -0.7950    -0.9390    -0.7700 c6         1 5KV       0.367300
      7 O25          0.4860    -0.7430    -0.1670 os         1 5KV      -0.466000
      8 O28         -1.1220    -2.2970    -0.5270 oh         1 5KV      -0.607000
      9 N29         -3.2110    -0.2310    -0.7580 n7         1 5KV      -0.877300
     10 O30         -2.1590     2.5020     0.2670 oh         1 5KV      -0.615000
     11 C31          2.4950     0.5870     0.1820 c3         1 5KV       0.216600
     12 O32          3.3450    -0.2950    -0.5760 os         1 5KV      -0.585700
     13 S33          4.9060    -0.3920    -0.0810 s6         1 5KV       1.504300
     14 S34         -4.5980     0.0070     0.0950 s6         1 5KV       1.369700
     15 O35         -5.2340    -1.2860    -0.1520 o          1 5KV      -0.713200
     16 O36         -4.1540     0.2180     1.4740 o          1 5KV      -0.713200
     17 O37         -5.2050     1.1540    -0.5860 o          1 5KV      -0.713200
     18 O38          5.4110     0.9820    -0.2140 o          1 5KV      -0.717867
     19 O39          4.8170    -0.8680     1.3070 o          1 5KV      -0.717867
     20 O40          5.5110    -1.3530    -1.0150 o          1 5KV      -0.717867
     21 H1           1.2400     3.2210     0.7010 ho         1 5KV       0.500000
     22 H2          -1.2820     1.6920    -1.4290 h1         1 5KV       0.024700
     23 H3           0.0710     1.4600     1.3090 h1         1 5KV       0.054700
     24 H4           1.1170     0.7360    -1.4950 h1         1 5KV       0.046700
     25 H5          -1.8690    -0.1950     0.9260 h1         1 5KV       0.100700
     26 H6          -0.7140    -0.7710    -1.8540 h2         1 5KV      -0.001300
     27 H7          -0.2500    -2.7390    -0.4640 ho         1 5KV       0.443000
     28 H8          -3.3300    -1.2380    -0.8100 hn         1 5KV       0.430000
     29 H9          -1.5870     3.3000     0.2950 ho         1 5KV       0.424000
     30 H10          2.8780     1.6140     0.1390 h1         1 5KV       0.034700
     31 H11          2.4440     0.2850     1.2370 h1         1 5KV       0.034700
@<TRIPOS>BOND
     1     1     3 1   
     2     1    21 1   
     3     2     3 1   
     4     2     5 1   
     5     2    10 1   
     6     2    22 1   
     7     3     4 1   
     8     3    23 1   
     9     4     7 1   
    10     4    11 1   
    11     4    24 1   
    12     5     6 1   
    13     5     9 1   
    14     5    25 1   
    15     6     7 1   
    16     6     8 1   
    17     6    26 1   
    18     8    27 1   
    19     9    14 1   
    20     9    28 1   
    21    10    29 1   
    22    11    12 1   
    23    11    30 1   
    24    11    31 1   
    25    12    13 1   
    26    13    18 1   
    27    13    19 1   
    28    13    20 1   
    29    14    15 1   
    30    14    16 1   
    31    14    17 1   
@<TRIPOS>SUBSTRUCTURE
     1 5KV         1 TEMP              0 ****  ****    0 ROOT
