@<TRIPOS>MOLECULE
5KV
   31    31     1     0     0
SMALL
bcc


@<TRIPOS>ATOM
      1 O13          0.6900     3.0020    -0.1570 oh         1 5KV      -0.614800
      2 C18         -1.2220     1.6210    -0.3190 c6         1 5KV       0.150100
      3 C19          0.2010     1.7330     0.2190 c6         1 5KV       0.059100
      4 C20          1.0530     0.5980    -0.3540 c6         1 5KV       0.135100
      5 C21         -1.8030     0.2270    -0.0780 c6         1 5KV       0.218500
      6 C22         -0.8160    -0.8140    -0.6160 c6         1 5KV       0.320900
      7 O25          0.4520    -0.6330    -0.0260 os         1 5KV      -0.419600
      8 O28         -1.2570    -2.0770    -0.3030 oh         1 5KV      -0.544800
      9 N29         -3.1060     0.1320    -0.7060 n7         1 5KV      -0.822100
     10 O30         -2.0670     2.5690     0.2740 oh         1 5KV      -0.552800
     11 C31          2.4560     0.6080     0.2070 c3         1 5KV       0.193400
     12 O32          3.2080    -0.3880    -0.4700 os         1 5KV      -0.562500
     13 S33          4.7710    -0.5920    -0.0060 s6         1 5KV       1.504300
     14 S34         -4.4260    -0.4550     0.1670 s6         1 5KV       1.369700
     15 O35         -4.2690    -1.8990     0.4060 o          1 5KV      -0.713200
     16 O36         -4.4020     0.3300     1.4100 o          1 5KV      -0.713200
     17 O37         -5.5560    -0.1520    -0.7250 o          1 5KV      -0.713200
     18 O38          5.4040     0.7200    -0.1620 o          1 5KV      -0.717867
     19 O39          4.7130    -1.0570     1.3810 o          1 5KV      -0.717867
     20 O40          5.2090    -1.6000    -0.9690 o          1 5KV      -0.717867
     21 H1           1.3240     3.3030     0.5000 ho         1 5KV       0.401000
     22 H2          -1.1710     1.7710    -1.4120 h1         1 5KV       0.024700
     23 H3           0.1710     1.6300     1.3140 h1         1 5KV       0.054700
     24 H4           1.1060     0.7210    -1.4490 h1         1 5KV       0.046700
     25 H5          -1.9060     0.0750     1.0020 h1         1 5KV       0.100700
     26 H6          -0.7180    -0.6760    -1.7090 h2         1 5KV      -0.001300
     27 H7          -0.8210    -2.7140    -0.8790 ho         1 5KV       0.404000
     28 H8          -3.0760    -0.2720    -1.6360 hn         1 5KV       0.374800
     29 H9          -1.6870     3.4380     0.1060 ho         1 5KV       0.385000
     30 H10          2.8960     1.5950     0.0480 h1         1 5KV       0.034700
     31 H11          2.4250     0.4150     1.2850 h1         1 5KV       0.034700
@<TRIPOS>BOND
     1     1     3 1   
     2     1    21 1   
     3     2     3 1   
     4     2     5 1   
     5     2    10 1   
     6     2    22 1   
     7     3     4 1   
     8     3    23 1   
     9     4     7 1   
    10     4    11 1   
    11     4    24 1   
    12     5     6 1   
    13     5     9 1   
    14     5    25 1   
    15     6     7 1   
    16     6     8 1   
    17     6    26 1   
    18     8    27 1   
    19     9    14 1   
    20     9    28 1   
    21    10    29 1   
    22    11    12 1   
    23    11    30 1   
    24    11    31 1   
    25    12    13 1   
    26    13    18 1   
    27    13    19 1   
    28    13    20 1   
    29    14    15 1   
    30    14    16 1   
    31    14    17 1   
@<TRIPOS>SUBSTRUCTURE
     1 5KV         1 TEMP              0 ****  ****    0 ROOT
