@<TRIPOS>MOLECULE
5KW
   57    60     1     0     0
SMALL
No Charge or Current Charge


@<TRIPOS>ATOM
      1 C01          8.9610     1.9310    -0.5600 c3         1 5KW       0.151100
      2 N02          8.7990     0.5640    -0.0110 n3         1 5KW      -0.712600
      3 C03          8.1520     0.5380     1.3380 c6         1 5KW       0.158800
      4 C04          6.6280     0.8960     1.2980 c6         1 5KW       0.159300
      5 C05          8.0570    -0.3600    -0.9260 c6         1 5KW       0.158800
      6 C06          6.5300    -0.0290    -1.0320 c6         1 5KW       0.159300
      7 N07          5.8620     0.0700     0.3080 nh         1 5KW      -0.780400
      8 C08          4.4600    -0.0930     0.4160 ca         1 5KW       0.284000
      9 C09          3.8410    -1.2410    -0.1140 ca         1 5KW      -0.149000
     10 C10          2.4490    -1.4220    -0.0160 ca         1 5KW      -0.088000
     11 C11          3.6550     0.8680     1.0590 ca         1 5KW      -0.149000
     12 C12          2.2620     0.6880     1.1580 ca         1 5KW      -0.088000
     13 C13          1.6430    -0.4500     0.6110 ca         1 5KW       0.252000
     14 N14          0.2540    -0.5930     0.7440 nu         1 5KW      -0.914900
     15 C15         -0.7310    -1.2550     0.0280 ca         1 5KW       0.418900
     16 N16         -0.4060    -1.8460    -1.1350 nb         1 5KW      -0.246000
     17 C17         -1.4050    -2.4610    -1.7960 ca         1 5KW       0.177900
     18 C18         -2.7150    -2.4770    -1.2930 ca         1 5KW      -0.095000
     19 Cl1         -4.0100    -3.2750    -2.1880 cl         1 5KW      -0.157000
     20 C20         -2.9480    -1.8210    -0.0680 ca         1 5KW       0.395300
     21 O21         -4.2290    -1.8060     0.4470 os         1 5KW      -0.350400
     22 C22         -4.6440    -0.8610     1.3600 ca         1 5KW       0.090100
     23 C23         -4.9680    -1.2780     2.6610 ca         1 5KW      -0.095000
     24 C24         -5.3920    -0.3400     3.6160 ca         1 5KW      -0.102000
     25 C25         -5.4990     1.0150     3.2630 ca         1 5KW      -0.099000
     26 C26         -5.1860     1.4360     1.9580 ca         1 5KW      -0.087000
     27 C27         -4.7530     0.5000     0.9910 ca         1 5KW      -0.044000
     28 N28         -4.4460     0.8680    -0.3500 ns         1 5KW      -0.166000
     29 C29         -4.1660     2.0920    -0.9400 c          1 5KW       0.610100
     30 C30         -3.8810     1.9990    -2.4430 c3         1 5KW       0.014600
     31 O31         -4.1170     3.1560    -0.3310 o          1 5KW      -0.555100
     32 N32         -1.9440    -1.2070     0.5930 nb         1 5KW      -0.317000
     33 H1           7.9910     2.4220    -0.7140 h1         1 5KW       0.030700
     34 H2           9.5530     2.5530     0.1240 h1         1 5KW       0.030700
     35 H3           9.4840     1.9000    -1.5250 h1         1 5KW       0.030700
     36 H5           8.2520    -0.4670     1.7740 h1         1 5KW       0.060200
     37 H6           8.6640     1.2260     2.0260 h1         1 5KW       0.060200
     38 H7           6.2180     0.7500     2.3090 h1         1 5KW       0.041450
     39 H8           6.5180     1.9630     1.0550 h1         1 5KW       0.041450
     40 H9           8.4970    -0.3430    -1.9340 h1         1 5KW       0.060200
     41 H10          8.1540    -1.3940    -0.5630 h1         1 5KW       0.060200
     42 H11          6.4070     0.9210    -1.5730 h1         1 5KW       0.041450
     43 H12          6.0560    -0.8070    -1.6470 h1         1 5KW       0.041450
     44 H13          4.4440    -2.0090    -0.5900 ha         1 5KW       0.116000
     45 H14          2.0110    -2.3320    -0.4110 ha         1 5KW       0.127500
     46 H15          4.0990     1.7670     1.4770 ha         1 5KW       0.116000
     47 H16          1.6620     1.4460     1.6540 ha         1 5KW       0.127500
     48 H17         -0.1500    -0.0240     1.4880 hn         1 5KW       0.527000
     49 H18         -1.1510    -2.9410    -2.7390 h4         1 5KW       0.037100
     50 H19         -4.8840    -2.3290     2.9290 ha         1 5KW       0.133000
     51 H20         -5.6390    -0.6630     4.6250 ha         1 5KW       0.121000
     52 H21         -5.8340     1.7420     4.0010 ha         1 5KW       0.122000
     53 H22         -5.3020     2.4870     1.7130 ha         1 5KW       0.131000
     54 H23         -4.4090     0.0840    -0.9880 hn         1 5KW       0.162000
     55 H24         -4.7380     1.5280    -2.9390 h1         1 5KW       0.082200
     56 H25         -3.7330     3.0080    -2.8440 h1         1 5KW       0.082200
     57 Cl2         -2.3940     1.0100    -2.8250 cl         1 5KW      -0.218000
@<TRIPOS>BOND
     1     1     2 1   
     2     1    33 1   
     3     1    34 1   
     4     1    35 1   
     5     2     3 1   
     6     2     5 1   
     7     3     4 1   
     8     3    36 1   
     9     3    37 1   
    10     4     7 1   
    11     4    38 1   
    12     4    39 1   
    13     5     6 1   
    14     5    40 1   
    15     5    41 1   
    16     6     7 1   
    17     6    42 1   
    18     6    43 1   
    19     7     8 1   
    20     8     9 ar  
    21     8    11 ar  
    22     9    10 ar  
    23     9    44 1   
    24    10    13 ar  
    25    10    45 1   
    26    11    12 ar  
    27    11    46 1   
    28    12    13 ar  
    29    12    47 1   
    30    13    14 1   
    31    14    15 1   
    32    14    48 1   
    33    15    16 ar  
    34    15    32 ar  
    35    16    17 ar  
    36    17    18 ar  
    37    17    49 1   
    38    18    19 1   
    39    18    20 ar  
    40    20    21 1   
    41    20    32 ar  
    42    21    22 1   
    43    22    23 ar  
    44    22    27 ar  
    45    23    24 ar  
    46    23    50 1   
    47    24    25 ar  
    48    24    51 1   
    49    25    26 ar  
    50    25    52 1   
    51    26    27 ar  
    52    26    53 1   
    53    27    28 1   
    54    28    29 1   
    55    28    54 1   
    56    29    30 1   
    57    29    31 2   
    58    30    55 1   
    59    30    56 1   
    60    30    57 1   
@<TRIPOS>SUBSTRUCTURE
     1 5KW         1 TEMP              0 ****  ****    0 ROOT
