@<TRIPOS>MOLECULE
5KW
   57    60     1     0     0
SMALL
bcc


@<TRIPOS>ATOM
      1 C01          8.4530     1.6140    -1.3500 c3         1 5KW       0.151100
      2 N02          8.3490     0.7510    -0.1910 n3         1 5KW      -0.712600
      3 C03          7.6340     1.3530     0.9180 c6         1 5KW       0.158800
      4 C04          6.1240     1.4290     0.7190 c6         1 5KW       0.159300
      5 C05          7.7730    -0.5490    -0.4760 c6         1 5KW       0.158800
      6 C06          6.2670    -0.5220    -0.7040 c6         1 5KW       0.159300
      7 N07          5.5880     0.1120     0.4220 nh         1 5KW      -0.642000
      8 C08          4.2050    -0.0510     0.4990 ca         1 5KW       0.145600
      9 C09          3.6300    -1.3230     0.3450 ca         1 5KW      -0.167000
     10 C10          2.2680    -1.5260     0.4560 ca         1 5KW      -0.106000
     11 C11          3.3330     1.0090     0.7690 ca         1 5KW      -0.167000
     12 C12          1.9640     0.8050     0.8720 ca         1 5KW      -0.106000
     13 C13          1.4120    -0.4580     0.7160 ca         1 5KW       0.113600
     14 N14          0.0260    -0.6180     0.8840 nu         1 5KW      -0.721300
     15 C15         -0.8240    -1.2840     0.0720 ca         1 5KW       0.944900
     16 N16         -0.3550    -1.9730    -0.9630 nb         1 5KW      -0.772000
     17 C17         -1.2590    -2.5570    -1.7380 ca         1 5KW       0.506200
     18 C18         -2.6160    -2.4580    -1.5170 ca         1 5KW      -0.317200
     19 CL1         -3.7740    -3.1960    -2.5490 cl         1 5KW      -0.065400
     20 C20         -2.9960    -1.7150    -0.3950 ca         1 5KW       0.723600
     21 O21         -4.3010    -1.5750    -0.1510 os         1 5KW      -0.350400
     22 C22         -4.7170    -0.8290     0.9320 ca         1 5KW       0.090100
     23 C23         -5.3950    -1.4830     1.9440 ca         1 5KW      -0.113000
     24 C24         -5.8800    -0.7570     3.0230 ca         1 5KW      -0.120000
     25 C25         -5.6860     0.6160     3.0780 ca         1 5KW      -0.117000
     26 C26         -5.0190     1.2660     2.0510 ca         1 5KW      -0.105000
     27 C27         -4.5300     0.5520     0.9650 ca         1 5KW       0.048600
     28 N28         -3.8510     1.1990    -0.0850 ns         1 5KW      -0.492100
     29 C29         -2.6500     1.8030     0.0930 c          1 5KW       0.677100
     30 C30         -1.9920     2.1750    -1.2250 c3         1 5KW      -0.062000
     31 O31         -2.1430     2.0050     1.1730 o          1 5KW      -0.555100
     32 N32         -2.1180    -1.1640     0.3950 nb         1 5KW      -0.843000
     33 H1           7.5000     1.9090    -1.8080 h1         1 5KW       0.030700
     34 H2           8.9750     2.5310    -1.0720 h1         1 5KW       0.030700
     35 H3           9.0460     1.1190    -2.1210 h1         1 5KW       0.030700
     36 H5           7.8370     0.7640     1.8190 h1         1 5KW       0.060200
     37 H6           8.0210     2.3580     1.0990 h1         1 5KW       0.060200
     38 H7           5.6810     1.8010     1.6440 h1         1 5KW       0.041450
     39 H8           5.8800     2.1560    -0.0710 h1         1 5KW       0.041450
     40 H9           8.2620    -0.9800    -1.3520 h1         1 5KW       0.060200
     41 H10          7.9840    -1.2110     0.3700 h1         1 5KW       0.060200
     42 H11          6.0260    -0.0010    -1.6420 h1         1 5KW       0.041450
     43 H12          5.9260    -1.5490    -0.8210 h1         1 5KW       0.041450
     44 H13          4.2580    -2.1860     0.1700 ha         1 5KW       0.134000
     45 H14          1.8770    -2.5290     0.3540 ha         1 5KW       0.145500
     46 H15          3.7010     2.0180     0.8840 ha         1 5KW       0.134000
     47 H16          1.3170     1.6550     1.0570 ha         1 5KW       0.145500
     48 H17         -0.4260     0.0030     1.5380 hn         1 5KW       0.471800
     49 H18         -0.8880    -3.1230    -2.5850 h4         1 5KW       0.037100
     50 H19         -5.5370    -2.5540     1.8880 ha         1 5KW       0.151000
     51 H20         -6.4060    -1.2670     3.8180 ha         1 5KW       0.139000
     52 H21         -6.0640     1.1850     3.9170 ha         1 5KW       0.140000
     53 H22         -4.8870     2.3390     2.0800 ha         1 5KW       0.149000
     54 H23         -4.1870     1.0530    -1.0260 hn         1 5KW       0.328500
     55 H24         -1.6870     1.2690    -1.7510 h1         1 5KW       0.082200
     56 H25         -2.6860     2.7160    -1.8680 h1         1 5KW       0.082200
     57 CL2         -0.5550     3.1770    -0.9720 cl         1 5KW      -0.141400
@<TRIPOS>BOND
     1     1     2 1   
     2     1    33 1   
     3     1    34 1   
     4     1    35 1   
     5     2     3 1   
     6     2     5 1   
     7     3     4 1   
     8     3    36 1   
     9     3    37 1   
    10     4     7 1   
    11     4    38 1   
    12     4    39 1   
    13     5     6 1   
    14     5    40 1   
    15     5    41 1   
    16     6     7 1   
    17     6    42 1   
    18     6    43 1   
    19     7     8 1   
    20     8     9 ar  
    21     8    11 ar  
    22     9    10 ar  
    23     9    44 1   
    24    10    13 ar  
    25    10    45 1   
    26    11    12 ar  
    27    11    46 1   
    28    12    13 ar  
    29    12    47 1   
    30    13    14 1   
    31    14    15 1   
    32    14    48 1   
    33    15    16 ar  
    34    15    32 ar  
    35    16    17 ar  
    36    17    18 ar  
    37    17    49 1   
    38    18    19 1   
    39    18    20 ar  
    40    20    21 1   
    41    20    32 ar  
    42    21    22 1   
    43    22    23 ar  
    44    22    27 ar  
    45    23    24 ar  
    46    23    50 1   
    47    24    25 ar  
    48    24    51 1   
    49    25    26 ar  
    50    25    52 1   
    51    26    27 ar  
    52    26    53 1   
    53    27    28 1   
    54    28    29 1   
    55    28    54 1   
    56    29    30 1   
    57    29    31 2   
    58    30    55 1   
    59    30    56 1   
    60    30    57 1   
@<TRIPOS>SUBSTRUCTURE
     1 5KW         1 TEMP              0 ****  ****    0 ROOT
