@<TRIPOS>MOLECULE
5KX
    9     9     1     0     0
SMALL
abcg2


@<TRIPOS>ATOM
      1 CL1         -1.8340     0.0300     0.0390 cl         1 5KX      -0.113000
      2 C02         -0.1320    -0.0570     0.0320 cc         1 5KX       0.478500
      3 N03          0.6300     1.0490     0.0240 na         1 5KX      -0.299500
      4 C04          1.9310     0.6290     0.0210 cc         1 5KX      -0.221000
      5 C05          1.8690    -0.7330     0.0270 cd         1 5KX       0.237900
      6 N06          0.5650    -1.1520     0.0330 nd         1 5KX      -0.650000
      7 H1           0.3090     2.0050     0.0250 hn         1 5KX       0.362000
      8 H2           2.7570     1.3200     0.0140 h4         1 5KX       0.162000
      9 H3           2.6880    -1.4350     0.0270 h4         1 5KX       0.043100
@<TRIPOS>BOND
     1     1     2 1   
     2     2     3 1   
     3     2     6 2   
     4     3     4 1   
     5     3     7 1   
     6     4     5 2   
     7     4     8 1   
     8     5     6 1   
     9     5     9 1   
@<TRIPOS>SUBSTRUCTURE
     1 5KX         1 TEMP              0 ****  ****    0 ROOT
