@<TRIPOS>MOLECULE
5KX
    9     9     1     0     0
SMALL
No Charge or Current Charge


@<TRIPOS>ATOM
      1 Cl1         -1.8940     0.0070     0.0390 cl         1 5KX      -0.113000
      2 C02         -0.1600    -0.0500     0.0320 cc         1 5KX       0.478500
      3 N03          0.6360     1.0640     0.0250 na         1 5KX      -0.299500
      4 C04          1.9500     0.6370     0.0210 cc         1 5KX      -0.221000
      5 C05          1.8820    -0.7340     0.0270 cd         1 5KX       0.237900
      6 N06          0.5650    -1.1550     0.0340 nd         1 5KX      -0.650000
      7 H1           0.2960     2.0190     0.0230 hn         1 5KX       0.362000
      8 H2           2.8030     1.3060     0.0150 h4         1 5KX       0.162000
      9 H3           2.7050    -1.4390     0.0260 h4         1 5KX       0.043100
@<TRIPOS>BOND
     1     1     2 1   
     2     2     3 1   
     3     2     6 2   
     4     3     4 1   
     5     3     7 1   
     6     4     5 2   
     7     4     8 1   
     8     5     6 1   
     9     5     9 1   
@<TRIPOS>SUBSTRUCTURE
     1 5KX         1 TEMP              0 ****  ****    0 ROOT
