@<TRIPOS>MOLECULE
5KY
   38    39     1     0     0
SMALL
No Charge or Current Charge


@<TRIPOS>ATOM
      1 C4           4.4080    -0.3090     0.1040 ca         1 5KY      -0.201600
      2 C5           4.2870    -1.8140    -0.0620 c          1 5KY       0.723600
      3 C6           3.2730     0.5370     0.2470 ca         1 5KY       0.020000
      4 C3           5.6980     0.2700     0.1020 ca         1 5KY      -0.060000
      5 C2           5.8680     1.6540     0.2520 ca         1 5KY      -0.171000
      6 C1           4.7530     2.4900     0.4090 ca         1 5KY      -0.071300
      7 C            4.9340     3.9910     0.5780 c3         1 5KY      -0.036800
      8 O1           3.3600    -2.3970     0.4830 o          1 5KY      -0.707500
      9 O2           0.4590     1.6760    -0.0590 o          1 5KY      -0.659100
     10 F2          -6.4450     0.2600    -1.4840 f          1 5KY      -0.122000
     11 F           -6.6320     0.2890     0.6810 f          1 5KY      -0.122000
     12 F1          -6.5830    -1.6040    -0.3860 f          1 5KY      -0.122000
     13 C11         -4.5210    -0.3890    -0.2000 ca         1 5KY      -0.191300
     14 C10         -3.7230     0.6240    -0.7690 ca         1 5KY      -0.088000
     15 C9          -2.3260     0.6000    -0.6240 ca         1 5KY      -0.094000
     16 C13         -3.8890    -1.4170     0.5310 ca         1 5KY      -0.129000
     17 C14         -2.4920    -1.4470     0.6870 ca         1 5KY       0.242000
     18 N2          -1.9380    -2.4740     1.4230 nv         1 5KY      -1.065000
     19 C8          -1.6930    -0.4290     0.1070 ca         1 5KY      -0.012000
     20 N1          -0.2730    -0.4900     0.2370 ns         1 5KY      -0.192000
     21 C7           0.7020     0.4880     0.1230 c          1 5KY       0.661100
     22 N            1.9750    -0.0430     0.2410 ns         1 5KY      -0.186000
     23 O            5.1390    -2.3900    -0.7240 o          1 5KY      -0.707500
     24 C15          3.4650     1.9290     0.4060 ca         1 5KY      -0.180000
     25 H1           6.5790    -0.3590    -0.0100 ha         1 5KY       0.128000
     26 H2           6.8700     2.0750     0.2480 ha         1 5KY       0.090000
     27 H3           4.8130     4.5090    -0.3810 hc         1 5KY       0.027033
     28 H4           4.1980     4.4050     1.2780 hc         1 5KY       0.027033
     29 H5           5.9300     4.2350     0.9670 hc         1 5KY       0.027033
     30 H6          -4.1810     1.4340    -1.3330 ha         1 5KY       0.124000
     31 H7          -1.7470     1.3840    -1.1030 ha         1 5KY       0.141000
     32 H8          -4.4890    -2.2000     0.9890 ha         1 5KY       0.115000
     33 H9          -2.5570    -3.1130     1.9190 hn         1 5KY       0.449000
     34 H10         -0.9980    -2.3790     1.8000 hn         1 5KY       0.449000
     35 H11          0.0810    -1.4200     0.4110 hn         1 5KY       0.175000
     36 H12          1.9970    -1.0500     0.3570 hn         1 5KY       0.233000
     37 H14          2.6180     2.5940     0.5400 ha         1 5KY       0.130000
     38 C12         -6.0490    -0.3620    -0.3500 c3         1 5KY       0.355300
@<TRIPOS>BOND
     1     1     2 1   
     2     1     3 ar  
     3     1     4 ar  
     4     2     8 1   
     5     2    23 1   
     6     3    22 1   
     7     3    24 ar  
     8     4     5 ar  
     9     4    25 1   
    10     5     6 ar  
    11     5    26 1   
    12     6     7 1   
    13     6    24 ar  
    14     7    27 1   
    15     7    28 1   
    16     7    29 1   
    17     9    21 2   
    18    10    38 1   
    19    11    38 1   
    20    12    38 1   
    21    13    14 ar  
    22    13    16 ar  
    23    13    38 1   
    24    14    15 ar  
    25    14    30 1   
    26    15    19 ar  
    27    15    31 1   
    28    16    17 ar  
    29    16    32 1   
    30    17    18 1   
    31    17    19 ar  
    32    18    33 1   
    33    18    34 1   
    34    19    20 1   
    35    20    21 1   
    36    20    35 1   
    37    21    22 1   
    38    22    36 1   
    39    24    37 1   
@<TRIPOS>SUBSTRUCTURE
     1 5KY         1 TEMP              0 ****  ****    0 ROOT
