@<TRIPOS>MOLECULE
5KY
   38    39     1     0     0
SMALL
bcc


@<TRIPOS>ATOM
      1 C4           4.3720    -0.3330     0.1280 ca         1 5KY      -0.201600
      2 C5           4.3790    -1.8450    -0.0370 c          1 5KY       0.934200
      3 C6           3.1930     0.4510     0.1530 ca         1 5KY       0.112600
      4 C3           5.5910     0.3200     0.2690 ca         1 5KY      -0.078000
      5 C2           5.6820     1.6930     0.4290 ca         1 5KY      -0.189000
      6 C1           4.5250     2.4630     0.4500 ca         1 5KY      -0.071300
      7 C            4.5860     3.9550     0.6030 c3         1 5KY      -0.036800
      8 O1           3.2650    -2.4260    -0.1650 o          1 5KY      -0.812800
      9 O2           0.4040     1.4270     0.2140 o          1 5KY      -0.659100
     10 F2          -6.3060     0.7900    -0.9900 f          1 5KY      -0.243300
     11 F           -6.2950     0.2750     1.0990 f          1 5KY      -0.243300
     12 F1          -6.4720    -1.2680    -0.3840 f          1 5KY      -0.243300
     13 C11         -4.3650    -0.2470    -0.1380 ca         1 5KY      -0.191300
     14 C10         -3.5770     0.6120    -0.8880 ca         1 5KY      -0.106000
     15 C9          -2.1990     0.4510    -0.8690 ca         1 5KY      -0.112000
     16 C13         -3.7830    -1.2410     0.6380 ca         1 5KY      -0.147000
     17 C14         -2.4000    -1.3960     0.6820 ca         1 5KY       0.103600
     18 N2          -1.8150    -2.4040     1.4200 nv         1 5KY      -0.816200
     19 C8          -1.6020    -0.5340    -0.0970 ca         1 5KY       0.080600
     20 N1          -0.2170    -0.7390    -0.0900 ns         1 5KY      -0.518100
     21 C7           0.7200     0.2580     0.0580 c          1 5KY       0.795100
     22 N            1.9890    -0.2250     0.0110 ns         1 5KY      -0.512100
     23 O            5.4780    -2.4150    -0.0350 o          1 5KY      -0.812800
     24 C15          3.2910     1.8360     0.3120 ca         1 5KY      -0.198000
     25 H1           6.4930    -0.2760     0.2540 ha         1 5KY       0.146000
     26 H2           6.6520     2.1630     0.5410 ha         1 5KY       0.108000
     27 H3           4.3160     4.4570    -0.3280 hc         1 5KY       0.027033
     28 H4           3.8920     4.3060     1.3670 hc         1 5KY       0.027033
     29 H5           5.5860     4.2890     0.8790 hc         1 5KY       0.027033
     30 H6          -4.0090     1.3930    -1.4980 ha         1 5KY       0.142000
     31 H7          -1.5830     1.0970    -1.4780 ha         1 5KY       0.159000
     32 H8          -4.3970    -1.9040     1.2370 ha         1 5KY       0.133000
     33 H9          -2.4210    -2.8370     2.0990 hn         1 5KY       0.393800
     34 H10         -0.9210    -2.1760     1.8300 hn         1 5KY       0.393800
     35 H11          0.0990    -1.6950    -0.1610 hn         1 5KY       0.341500
     36 H12          2.1760    -1.2440    -0.1000 hn         1 5KY       0.399500
     37 H14          2.3970     2.4380     0.3330 ha         1 5KY       0.148000
     38 C12         -5.8530    -0.1090    -0.1100 c3         1 5KY       0.719200
@<TRIPOS>BOND
     1     1     2 1   
     2     1     3 ar  
     3     1     4 ar  
     4     2     8 1   
     5     2    23 1   
     6     3    22 1   
     7     3    24 ar  
     8     4     5 ar  
     9     4    25 1   
    10     5     6 ar  
    11     5    26 1   
    12     6     7 1   
    13     6    24 ar  
    14     7    27 1   
    15     7    28 1   
    16     7    29 1   
    17     9    21 2   
    18    10    38 1   
    19    11    38 1   
    20    12    38 1   
    21    13    14 ar  
    22    13    16 ar  
    23    13    38 1   
    24    14    15 ar  
    25    14    30 1   
    26    15    19 ar  
    27    15    31 1   
    28    16    17 ar  
    29    16    32 1   
    30    17    18 1   
    31    17    19 ar  
    32    18    33 1   
    33    18    34 1   
    34    19    20 1   
    35    20    21 1   
    36    20    35 1   
    37    21    22 1   
    38    22    36 1   
    39    24    37 1   
@<TRIPOS>SUBSTRUCTURE
     1 5KY         1 TEMP              0 ****  ****    0 ROOT
