@<TRIPOS>MOLECULE
5KZ
   69    69     1     0     0
SMALL
abcg2


@<TRIPOS>ATOM
      1 C1           2.1740     0.8860    -0.2160 c6         1 5KZ      -0.084700
      2 C2           3.5110     0.9200     0.5240 c6         1 5KZ       0.159300
      3 C3           4.2170    -0.4180     0.3390 c6         1 5KZ       0.162300
      4 C4           3.2900    -1.5710     0.7140 c6         1 5KZ       0.135300
      5 O2           4.3410     1.9270    -0.0150 os         1 5KZ      -0.443100
      6 CBJ          4.5900     3.0340     0.7010 c          1 5KZ       0.603100
      7 OBL          4.2130     3.1900     1.8310 o          1 5KZ      -0.467000
      8 O3           4.5590    -0.5460    -1.0330 os         1 5KZ      -0.442100
      9 CBC          5.8230    -0.8110    -1.3840 c          1 5KZ       0.609100
     10 OBH          6.7250    -0.9210    -0.5970 o          1 5KZ      -0.483000
     11 CBD          5.9650    -0.9640    -2.8670 c3         1 5KZ      -0.153100
     12 O4           3.9570    -2.7680     0.3520 os         1 5KZ      -0.454100
     13 CAZ          4.0520    -3.7760     1.2340 c          1 5KZ       0.597100
     14 OBF          3.5350    -3.7550     2.3190 o          1 5KZ      -0.468000
     15 CBB          4.8730    -4.8940     0.6730 c3         1 5KZ      -0.155100
     16 C5           1.9600    -1.4570    -0.0360 c6         1 5KZ       0.153300
     17 CAY         -1.2610    -3.0860    -0.1450 c          1 5KZ       0.592100
     18 OBE         -1.2780    -3.9130     0.7320 o          1 5KZ      -0.477000
     19 CBA         -2.3900    -2.8270    -1.0960 c3         1 5KZ      -0.157100
     20 O5           1.4140    -0.1800     0.2540 os         1 5KZ      -0.424000
     21 SAL          1.1650     2.3640     0.1230 s6         1 5KZ       1.216100
     22 OAM          0.9070     2.3930     1.5520 o          1 5KZ      -0.514500
     23 OAN          1.8450     3.4750    -0.5240 o          1 5KZ      -0.514500
     24 NAK         -0.2570     2.1540    -0.6410 n7         1 5KZ      -0.898300
     25 CAJ         -1.3230     1.2980    -0.1240 c3         1 5KZ       0.221800
     26 CAI         -2.6740     1.7940    -0.6100 c3         1 5KZ      -0.083400
     27 CAH         -3.8090     0.9510    -0.0450 c3         1 5KZ      -0.078400
     28 CAG         -5.1720     1.4020    -0.5560 c3         1 5KZ      -0.082400
     29 CAF         -6.2750     0.5560     0.0360 c3         1 5KZ       0.206600
     30 OAA         -7.5220     0.9960    -0.5490 os         1 5KZ      -0.569700
     31 SAB         -8.8870     0.4230     0.0280 s6         1 5KZ       1.399800
     32 OAC         -9.8790     0.9430    -0.8850 o          1 5KZ      -0.554000
     33 OAD         -8.7900    -1.0040     0.2430 o          1 5KZ      -0.554000
     34 NAE         -8.9300     1.1210     1.5100 n8         1 5KZ      -1.055100
     35 H1           2.3200     0.8600    -1.3050 h2         1 5KZ       0.091700
     36 H2           3.3320     1.0710     1.5930 h1         1 5KZ       0.108700
     37 H3           5.1080    -0.4430     0.9710 h1         1 5KZ       0.097700
     38 H4           3.1050    -1.5270     1.7910 h1         1 5KZ       0.097700
     39 H7           5.7210     3.6470    -1.0410 hc         1 5KZ       0.075033
     40 H8           4.7800     4.9170    -0.2440 hc         1 5KZ       0.075033
     41 H9           6.2580     4.3370     0.5050 hc         1 5KZ       0.075033
     42 H10          5.0690    -0.6780    -3.4110 hc         1 5KZ       0.070033
     43 H11          6.8070    -0.3690    -3.2150 hc         1 5KZ       0.070033
     44 H12          6.1920    -2.0070    -3.0930 hc         1 5KZ       0.070033
     45 H13          5.8900    -4.5500     0.4790 hc         1 5KZ       0.075033
     46 H14          4.9060    -5.7270     1.3690 hc         1 5KZ       0.075033
     47 H15          4.4600    -5.2320    -0.2770 hc         1 5KZ       0.075033
     48 H16          2.1280    -1.5660    -1.1160 h1         1 5KZ       0.075700
     49 H17         -2.4020    -3.6150    -1.8510 hc         1 5KZ       0.070033
     50 H18         -3.3390    -2.8720    -0.5650 hc         1 5KZ       0.070033
     51 H19         -2.3030    -1.8720    -1.6090 hc         1 5KZ       0.070033
     52 H20         -0.1790     2.1990    -1.6510 hn         1 5KZ       0.488000
     53 H21         -1.1690     0.2600    -0.4210 h1         1 5KZ       0.063700
     54 H22         -1.2900     1.3330     0.9650 h1         1 5KZ       0.063700
     55 H23         -2.8040     2.8390    -0.3170 hc         1 5KZ       0.051700
     56 H24         -2.7070     1.7650    -1.7040 hc         1 5KZ       0.051700
     57 H25         -3.6550    -0.1010    -0.3050 hc         1 5KZ       0.042200
     58 H26         -3.7870     1.0020     1.0480 hc         1 5KZ       0.042200
     59 H27         -5.3330     2.4520    -0.3000 hc         1 5KZ       0.061200
     60 H28         -5.1960     1.3260    -1.6470 hc         1 5KZ       0.061200
     61 H29         -6.1250    -0.5010    -0.1950 h1         1 5KZ       0.054200
     62 H30         -6.3160     0.6740     1.1220 h1         1 5KZ       0.054200
     63 H31         -9.1890     2.1010     1.4920 hn         1 5KZ       0.485000
     64 H32         -9.4980     0.6010     2.1690 hn         1 5KZ       0.485000
     65 C6           0.9500    -2.4850     0.4210 c3         1 5KZ       0.168600
     66 O6          -0.2080    -2.3110    -0.3920 os         1 5KZ      -0.453100
     67 CBK          5.3910     4.0290    -0.0790 c3         1 5KZ      -0.148100
     68 H5           1.3470    -3.4920     0.2860 h1         1 5KZ       0.070200
     69 H6           0.7090    -2.3450     1.4780 h1         1 5KZ       0.070200
@<TRIPOS>BOND
     1     1     2 1   
     2     1    20 1   
     3     1    21 1   
     4     1    35 1   
     5     2     3 1   
     6     2     5 1   
     7     2    36 1   
     8     3     4 1   
     9     3     8 1   
    10     3    37 1   
    11     4    12 1   
    12     4    16 1   
    13     4    38 1   
    14     5     6 1   
    15     6     7 2   
    16     6    67 1   
    17     8     9 1   
    18     9    10 2   
    19     9    11 1   
    20    11    42 1   
    21    11    43 1   
    22    11    44 1   
    23    12    13 1   
    24    13    14 2   
    25    13    15 1   
    26    15    45 1   
    27    15    46 1   
    28    15    47 1   
    29    16    20 1   
    30    16    48 1   
    31    16    65 1   
    32    17    18 2   
    33    17    19 1   
    34    17    66 1   
    35    19    49 1   
    36    19    50 1   
    37    19    51 1   
    38    21    22 2   
    39    21    23 2   
    40    21    24 1   
    41    24    25 1   
    42    24    52 1   
    43    25    26 1   
    44    25    53 1   
    45    25    54 1   
    46    26    27 1   
    47    26    55 1   
    48    26    56 1   
    49    27    28 1   
    50    27    57 1   
    51    27    58 1   
    52    28    29 1   
    53    28    59 1   
    54    28    60 1   
    55    29    30 1   
    56    29    61 1   
    57    29    62 1   
    58    30    31 1   
    59    31    32 2   
    60    31    33 2   
    61    31    34 1   
    62    34    63 1   
    63    34    64 1   
    64    39    67 1   
    65    40    67 1   
    66    41    67 1   
    67    65    66 1   
    68    65    68 1   
    69    65    69 1   
@<TRIPOS>SUBSTRUCTURE
     1 5KZ         1 TEMP              0 ****  ****    0 ROOT
