@<TRIPOS>MOLECULE
5KZ
   69    69     1     0     0
SMALL
No Charge or Current Charge


@<TRIPOS>ATOM
      1 C1           2.1470     1.4050    -0.5990 c6         1 5KZ      -0.084700
      2 C2           3.3260     1.2600     0.3950 c6         1 5KZ       0.159300
      3 C3           3.9120    -0.1870     0.3000 c6         1 5KZ       0.162300
      4 C4           2.7750    -1.2350     0.5250 c6         1 5KZ       0.135300
      5 O2           4.3340     2.2620     0.1220 os         1 5KZ      -0.443100
      6 CBJ          5.3740     2.4760     0.9870 c          1 5KZ       0.603100
      7 OBL          5.5040     1.9140     2.0640 o          1 5KZ      -0.467000
      8 O3           4.5400    -0.3710    -0.9970 os         1 5KZ      -0.442100
      9 CBC          5.5690    -1.2580    -1.1680 c          1 5KZ       0.609100
     10 OBH          6.1460    -1.8390    -0.2610 o          1 5KZ      -0.483000
     11 CBD          6.0200    -1.3060    -2.6200 c3         1 5KZ      -0.153100
     12 O4           3.3070    -2.5830     0.4620 os         1 5KZ      -0.454100
     13 CAZ          2.8000    -3.5960     1.2320 c          1 5KZ       0.597100
     14 OBF          1.8890    -3.4660     2.0360 o          1 5KZ      -0.468000
     15 CBB          3.5210    -4.9090     0.9720 c3         1 5KZ      -0.155100
     16 C5           1.6300    -0.9890    -0.5090 c6         1 5KZ       0.153300
     17 CAY         -1.7500    -2.3310    -1.3480 c          1 5KZ       0.592100
     18 OBE         -2.0770    -3.1170    -0.4710 o          1 5KZ      -0.477000
     19 CBA         -2.6290    -1.9800    -2.5400 c3         1 5KZ      -0.157100
     20 O5           1.1520     0.3680    -0.3580 os         1 5KZ      -0.424000
     21 SAL          1.3710     3.0790    -0.5230 s6         1 5KZ       1.216100
     22 OAM          1.3470     3.5550     0.8640 o          1 5KZ      -0.514500
     23 OAN          1.8750     3.9410    -1.5960 o          1 5KZ      -0.514500
     24 NAK         -0.2160     2.7220    -0.9210 n7         1 5KZ      -0.898300
     25 CAJ         -1.1440     2.3730     0.1680 c3         1 5KZ       0.221800
     26 CAI         -2.4180     1.7470    -0.4290 c3         1 5KZ      -0.083400
     27 CAH         -3.4160     1.2580     0.6450 c3         1 5KZ      -0.078400
     28 CAG         -4.6780     0.6020     0.0400 c3         1 5KZ      -0.082400
     29 CAF         -5.6740     0.1090     1.1060 c3         1 5KZ       0.206600
     30 OAA         -6.7840    -0.4780     0.4100 os         1 5KZ      -0.569700
     31 SAB         -7.9800    -1.0990     1.3250 s6         1 5KZ       1.399800
     32 OAC         -8.3480    -2.4200     0.8250 o          1 5KZ      -0.554000
     33 OAD         -7.7780    -0.8110     2.7440 o          1 5KZ      -0.554000
     34 NAE         -9.1180    -0.1030     0.7740 n8         1 5KZ      -1.055100
     35 H1           2.5090     1.3480    -1.6350 h2         1 5KZ       0.091700
     36 H2           2.9430     1.4190     1.4160 h1         1 5KZ       0.108700
     37 H3           4.6650    -0.3090     1.0910 h1         1 5KZ       0.097700
     38 H4           2.3730    -1.0600     1.5350 h1         1 5KZ       0.097700
     39 H7           6.6860     3.2550    -0.5130 hc         1 5KZ       0.075033
     40 H8           5.7310     4.4500     0.2410 hc         1 5KZ       0.075033
     41 H9           7.1320     3.7670     1.1720 hc         1 5KZ       0.075033
     42 H10          5.1760    -1.6290    -3.2390 hc         1 5KZ       0.070033
     43 H11          6.1870    -0.2820    -2.9720 hc         1 5KZ       0.070033
     44 H12          6.9030    -1.9360    -2.7670 hc         1 5KZ       0.070033
     45 H13          4.5960    -4.7540     1.1170 hc         1 5KZ       0.075033
     46 H14          3.1390    -5.7290     1.5890 hc         1 5KZ       0.075033
     47 H15          3.4620    -5.1370    -0.0970 hc         1 5KZ       0.075033
     48 H16          2.0180    -1.1230    -1.5290 h1         1 5KZ       0.075700
     49 H17         -2.0850    -2.2280    -3.4580 hc         1 5KZ       0.070033
     50 H18         -3.6050    -2.4750    -2.5030 hc         1 5KZ       0.070033
     51 H19         -2.7200    -0.8920    -2.6140 hc         1 5KZ       0.070033
     52 H20         -0.0320     1.8400    -1.4030 hn         1 5KZ       0.488000
     53 H21         -0.6930     1.6480     0.8620 h1         1 5KZ       0.063700
     54 H22         -1.4140     3.2640     0.7520 h1         1 5KZ       0.063700
     55 H23         -2.9100     2.4830    -1.0770 hc         1 5KZ       0.051700
     56 H24         -2.1350     0.8980    -1.0610 hc         1 5KZ       0.051700
     57 H25         -2.9140     0.5340     1.3000 hc         1 5KZ       0.042200
     58 H26         -3.7150     2.1070     1.2730 hc         1 5KZ       0.042200
     59 H27         -5.1840     1.3220    -0.6140 hc         1 5KZ       0.061200
     60 H28         -4.3810    -0.2490    -0.5860 hc         1 5KZ       0.061200
     61 H29         -5.1790    -0.6280     1.7540 h1         1 5KZ       0.054200
     62 H30         -5.9960     0.9590     1.7240 h1         1 5KZ       0.054200
     63 H31         -8.5670     0.2990     0.0210 hn         1 5KZ       0.485000
     64 H32         -9.7010    -0.7900     0.3070 hn         1 5KZ       0.485000
     65 C6           0.3940    -1.9160    -0.3290 c3         1 5KZ       0.168600
     66 O6          -0.5570    -1.6600    -1.3850 os         1 5KZ      -0.453100
     67 CBK          6.3150     3.5530     0.4740 c3         1 5KZ      -0.148100
     68 H5           0.7200    -2.9630    -0.3670 h1         1 5KZ       0.070200
     69 H6          -0.0490    -1.7250     0.6580 h1         1 5KZ       0.070200
@<TRIPOS>BOND
     1     1     2 1   
     2     1    20 1   
     3     1    21 1   
     4     1    35 1   
     5     2     3 1   
     6     2     5 1   
     7     2    36 1   
     8     3     4 1   
     9     3     8 1   
    10     3    37 1   
    11     4    12 1   
    12     4    16 1   
    13     4    38 1   
    14     5     6 1   
    15     6     7 2   
    16     6    67 1   
    17     8     9 1   
    18     9    10 2   
    19     9    11 1   
    20    11    42 1   
    21    11    43 1   
    22    11    44 1   
    23    12    13 1   
    24    13    14 2   
    25    13    15 1   
    26    15    45 1   
    27    15    46 1   
    28    15    47 1   
    29    16    20 1   
    30    16    48 1   
    31    16    65 1   
    32    17    18 2   
    33    17    19 1   
    34    17    66 1   
    35    19    49 1   
    36    19    50 1   
    37    19    51 1   
    38    21    22 2   
    39    21    23 2   
    40    21    24 1   
    41    24    25 1   
    42    24    52 1   
    43    25    26 1   
    44    25    53 1   
    45    25    54 1   
    46    26    27 1   
    47    26    55 1   
    48    26    56 1   
    49    27    28 1   
    50    27    57 1   
    51    27    58 1   
    52    28    29 1   
    53    28    59 1   
    54    28    60 1   
    55    29    30 1   
    56    29    61 1   
    57    29    62 1   
    58    30    31 1   
    59    31    32 2   
    60    31    33 2   
    61    31    34 1   
    62    34    63 1   
    63    34    64 1   
    64    39    67 1   
    65    40    67 1   
    66    41    67 1   
    67    65    66 1   
    68    65    68 1   
    69    65    69 1   
@<TRIPOS>SUBSTRUCTURE
     1 5KZ         1 TEMP              0 ****  ****    0 ROOT
