@<TRIPOS>MOLECULE
5L0
   47    51     1     0     0
SMALL
No Charge or Current Charge


@<TRIPOS>ATOM
      1 CAN          4.6390    -0.2290     0.8710 c6         1 5L0       0.168300
      2 CAL          6.0100    -0.7120     0.3110 c6         1 5L0       0.144600
      3 OAQ          5.9450    -2.1090    -0.0650 os         1 5L0      -0.438000
      4 CAM          4.9470    -2.3660    -1.0810 c6         1 5L0       0.144600
      5 CAO          3.5300    -1.9470    -0.5860 c6         1 5L0       0.168300
      6 NAY          3.5080    -0.5370    -0.0700 nh         1 5L0      -0.794400
      7 CAS          2.3630     0.2430    -0.1200 cc         1 5L0       0.349000
      8 CAK          1.1040    -0.3200    -0.1110 cd         1 5L0      -0.214000
      9 CAX          0.0080     0.5960    -0.1850 cd         1 5L0      -0.005000
     10 CAF          2.4950     1.6810    -0.1870 cc         1 5L0      -0.190000
     11 CAI          1.4250     2.5730    -0.2080 cd         1 5L0      -0.065000
     12 NBA          0.1610     1.9700    -0.1780 na         1 5L0       0.183100
     13 CAU         -1.0520     2.6610    -0.1100 cd         1 5L0      -0.280300
     14 CAR         -1.3530     4.1210    -0.0870 c          1 5L0       0.616300
     15 OAB         -0.4760     4.9730    -0.1210 o          1 5L0      -0.566100
     16 CAA         -2.8170     4.5540    -0.0160 c3         1 5L0      -0.187100
     17 CAJ         -1.9880     1.6420    -0.0850 cc         1 5L0      -0.101000
     18 CAT         -1.3500     0.3620    -0.1430 cc         1 5L0      -0.183200
     19 CAV         -2.0320    -0.9230    -0.2100 cc         1 5L0       0.016200
     20 NAZ         -3.3570    -1.1290     0.2430 na         1 5L0       0.133100
     21 CAH         -3.9500    -0.3680     1.2210 cc         1 5L0      -0.284100
     22 CAD         -5.1030    -1.0720     1.5070 cd         1 5L0      -0.039400
     23 NAP         -5.1240    -2.2900     0.8380 nd         1 5L0      -0.294600
     24 CAW         -3.9990    -2.3330     0.1510 cc         1 5L0      -0.079000
     25 CAG         -3.4300    -3.4150    -0.5710 cc         1 5L0      -0.081000
     26 CAC         -2.1770    -3.2550    -1.1080 cd         1 5L0      -0.103000
     27 CAE         -1.4820    -2.0060    -0.9080 cd         1 5L0      -0.158000
     28 H1           4.4600    -0.7280     1.8340 h1         1 5L0       0.053700
     29 H2           4.7080     0.8460     1.0860 h1         1 5L0       0.053700
     30 H3           6.2860    -0.1120    -0.5680 h1         1 5L0       0.056950
     31 H4           6.7900    -0.5790     1.0730 h1         1 5L0       0.056950
     32 H5           5.2040    -1.8030    -1.9900 h1         1 5L0       0.056950
     33 H6           4.9530    -3.4360    -1.3310 h1         1 5L0       0.056950
     34 H7           2.8240    -2.0620    -1.4210 h1         1 5L0       0.053700
     35 H8           3.2110    -2.6400     0.2060 h1         1 5L0       0.053700
     36 H9           0.9710    -1.3860    -0.0020 ha         1 5L0       0.140000
     37 H10          3.4970     2.0910    -0.2270 ha         1 5L0       0.136000
     38 H11          1.5100     3.6490    -0.2450 h4         1 5L0       0.179000
     39 H12         -3.2890     4.0770     0.8500 hc         1 5L0       0.062700
     40 H13         -2.9340     5.6440     0.0100 hc         1 5L0       0.062700
     41 H14         -3.3600     4.1120    -0.8580 hc         1 5L0       0.062700
     42 H15         -3.0670     1.7830    -0.0980 ha         1 5L0       0.209000
     43 H16         -3.5500     0.5490     1.6330 h4         1 5L0       0.233000
     44 H17         -5.8930    -0.7980     2.2050 h4         1 5L0       0.223000
     45 H18         -3.9710    -4.3520    -0.6600 ha         1 5L0       0.141000
     46 H19         -1.7150    -4.0590    -1.6720 ha         1 5L0       0.120000
     47 H20         -0.5240    -1.9000    -1.3990 ha         1 5L0       0.128000
@<TRIPOS>BOND
     1     1     2 1   
     2     1     6 1   
     3     1    28 1   
     4     1    29 1   
     5     2     3 1   
     6     2    30 1   
     7     2    31 1   
     8     3     4 1   
     9     4     5 1   
    10     4    32 1   
    11     4    33 1   
    12     5     6 1   
    13     5    34 1   
    14     5    35 1   
    15     6     7 1   
    16     7     8 2   
    17     7    10 1   
    18     8     9 1   
    19     8    36 1   
    20     9    12 1   
    21     9    18 2   
    22    10    11 2   
    23    10    37 1   
    24    11    12 1   
    25    11    38 1   
    26    12    13 1   
    27    13    14 1   
    28    13    17 2   
    29    14    15 2   
    30    14    16 1   
    31    16    39 1   
    32    16    40 1   
    33    16    41 1   
    34    17    18 1   
    35    17    42 1   
    36    18    19 1   
    37    19    20 1   
    38    19    27 2   
    39    20    21 1   
    40    20    24 1   
    41    21    22 2   
    42    21    43 1   
    43    22    23 1   
    44    22    44 1   
    45    23    24 2   
    46    24    25 1   
    47    25    26 2   
    48    25    45 1   
    49    26    27 1   
    50    26    46 1   
    51    27    47 1   
@<TRIPOS>SUBSTRUCTURE
     1 5L0         1 TEMP              0 ****  ****    0 ROOT
