@<TRIPOS>MOLECULE
5L0
   47    51     1     0     0
SMALL
abcg2


@<TRIPOS>ATOM
      1 CAN          4.6640    -0.0990     0.6920 c6         1 5L0       0.168300
      2 CAL          5.9000    -0.7860     0.1460 c6         1 5L0       0.144600
      3 OAQ          5.7360    -2.1830     0.0920 os         1 5L0      -0.438000
      4 CAM          4.6450    -2.5120    -0.7340 c6         1 5L0       0.144600
      5 CAO          3.3450    -1.9000    -0.2410 c6         1 5L0       0.168300
      6 NAY          3.4920    -0.4630    -0.0950 nh         1 5L0      -0.794400
      7 CAS          2.3710     0.3250    -0.0690 cc         1 5L0       0.349000
      8 CAK          1.0890    -0.1900    -0.1590 cd         1 5L0      -0.214000
      9 CAX         -0.0210     0.6610    -0.2030 cd         1 5L0      -0.005000
     10 CAF          2.4890     1.7470     0.0090 cc         1 5L0      -0.190000
     11 CAI          1.4010     2.5500    -0.0130 cd         1 5L0      -0.065000
     12 NBA          0.1490     2.0230    -0.1200 na         1 5L0       0.183100
     13 CAU         -1.0950     2.6540    -0.1450 cd         1 5L0      -0.280300
     14 CAR         -1.3030     4.0780    -0.0860 c          1 5L0       0.616300
     15 OAB         -0.3830     4.8850    -0.0260 o          1 5L0      -0.566100
     16 CAA         -2.7410     4.5370    -0.0910 c3         1 5L0      -0.187100
     17 CAJ         -2.0430     1.6480    -0.2430 cc         1 5L0      -0.101000
     18 CAT         -1.4060     0.4080    -0.2840 cc         1 5L0      -0.183200
     19 CAV         -2.0120    -0.9050    -0.4450 cc         1 5L0       0.016200
     20 NAZ         -3.0960    -1.2380     0.3360 na         1 5L0       0.133100
     21 CAH         -3.7310    -0.5410     1.3340 cc         1 5L0      -0.284100
     22 CAD         -4.7320    -1.3650     1.7680 cd         1 5L0      -0.039400
     23 NAP         -4.7480    -2.5380     1.0930 nd         1 5L0      -0.294600
     24 CAW         -3.7520    -2.4580     0.2300 cc         1 5L0      -0.079000
     25 CAG         -3.2830    -3.4090    -0.6980 cc         1 5L0      -0.081000
     26 CAC         -2.2000    -3.0990    -1.4640 cd         1 5L0      -0.103000
     27 CAE         -1.5710    -1.8390    -1.3390 cd         1 5L0      -0.158000
     28 H1           4.5150    -0.3760     1.7440 h1         1 5L0       0.053700
     29 H2           4.8360     0.9740     0.6610 h1         1 5L0       0.053700
     30 H3           6.1270    -0.3860    -0.8520 h1         1 5L0       0.056950
     31 H4           6.7490    -0.5760     0.7970 h1         1 5L0       0.056950
     32 H5           4.8290    -2.1780    -1.7640 h1         1 5L0       0.056950
     33 H6           4.5500    -3.5990    -0.7430 h1         1 5L0       0.056950
     34 H7           2.5830    -2.1220    -0.9880 h1         1 5L0       0.053700
     35 H8           3.0330    -2.3670     0.7030 h1         1 5L0       0.053700
     36 H9           0.8980    -1.2520    -0.1750 ha         1 5L0       0.140000
     37 H10          3.4510     2.2330     0.0650 ha         1 5L0       0.136000
     38 H11          1.4760     3.6220     0.0380 h4         1 5L0       0.179000
     39 H12         -3.2640     4.1810     0.7990 hc         1 5L0       0.062700
     40 H13         -2.7850     5.6230    -0.1060 hc         1 5L0       0.062700
     41 H14         -3.2800     4.1530    -0.9580 hc         1 5L0       0.062700
     42 H15         -3.1070     1.8150    -0.3140 ha         1 5L0       0.209000
     43 H16         -3.4260     0.4390     1.6530 h4         1 5L0       0.233000
     44 H17         -5.4460    -1.1510     2.5500 h4         1 5L0       0.223000
     45 H18         -3.7890    -4.3610    -0.7700 ha         1 5L0       0.141000
     46 H19         -1.8180    -3.8090    -2.1840 ha         1 5L0       0.120000
     47 H20         -0.7390    -1.5910    -1.9840 ha         1 5L0       0.128000
@<TRIPOS>BOND
     1     1     2 1   
     2     1     6 1   
     3     1    28 1   
     4     1    29 1   
     5     2     3 1   
     6     2    30 1   
     7     2    31 1   
     8     3     4 1   
     9     4     5 1   
    10     4    32 1   
    11     4    33 1   
    12     5     6 1   
    13     5    34 1   
    14     5    35 1   
    15     6     7 1   
    16     7     8 2   
    17     7    10 1   
    18     8     9 1   
    19     8    36 1   
    20     9    12 1   
    21     9    18 2   
    22    10    11 2   
    23    10    37 1   
    24    11    12 1   
    25    11    38 1   
    26    12    13 1   
    27    13    14 1   
    28    13    17 2   
    29    14    15 2   
    30    14    16 1   
    31    16    39 1   
    32    16    40 1   
    33    16    41 1   
    34    17    18 1   
    35    17    42 1   
    36    18    19 1   
    37    19    20 1   
    38    19    27 2   
    39    20    21 1   
    40    20    24 1   
    41    21    22 2   
    42    21    43 1   
    43    22    23 1   
    44    22    44 1   
    45    23    24 2   
    46    24    25 1   
    47    25    26 2   
    48    25    45 1   
    49    26    27 1   
    50    26    46 1   
    51    27    47 1   
@<TRIPOS>SUBSTRUCTURE
     1 5L0         1 TEMP              0 ****  ****    0 ROOT
