@<TRIPOS>MOLECULE
5L2
   55    56     1     0     0
SMALL
abcg2


@<TRIPOS>ATOM
      1 C1          -0.7040     0.5920    -0.0750 c6         1 5L2      -0.009700
      2 C2          -0.1940     0.6150    -1.5180 c6         1 5L2       0.177300
      3 C3          -1.2550     0.1040    -2.4950 c6         1 5L2       0.089300
      4 C4          -2.6400     0.6890    -2.2150 c6         1 5L2       0.129300
      5 C5          -2.9860     0.4630    -0.7510 c6         1 5L2       0.154300
      6 C6          -4.3090     1.0910    -0.3820 c3         1 5L2       0.177600
      7 O2           0.1720     1.9470    -1.7600 oh         1 5L2      -0.693000
      8 O3          -0.8140     0.4390    -3.7900 oh         1 5L2      -0.663000
      9 O4          -2.7200     2.0580    -2.5010 oh         1 5L2      -0.694000
     10 O6          -4.6370     0.6520     0.9350 os         1 5L2      -0.442100
     11 CAZ         -5.7960     1.0530     1.4490 c          1 5L2       0.598100
     12 OAG         -6.5750     1.7530     0.8520 o          1 5L2      -0.493000
     13 CAB         -5.9870     0.5360     2.8430 c3         1 5L2      -0.156100
     14 O5          -2.0000     1.0280     0.1030 os         1 5L2      -0.373000
     15 SBN         -0.4700    -1.0580     0.7150 s6         1 5L2       1.165100
     16 OAN         -1.0470    -0.9490     2.0430 o          1 5L2      -0.517500
     17 OAO         -0.9080    -2.1210    -0.1840 o          1 5L2      -0.517500
     18 N            1.1480    -1.2090     0.8300 n3         1 5L2      -0.789500
     19 CD1          1.9770    -0.3950     1.7090 c5         1 5L2       0.200800
     20 CG           3.2670    -0.3190     0.9140 c5         1 5L2       0.199300
     21 OD2          3.1400     0.5670    -0.2190 os         1 5L2      -0.574700
     22 SBM          3.3620     2.1420    -0.0680 s6         1 5L2       1.404800
     23 OAL          3.2980     2.6080    -1.4320 o          1 5L2      -0.546500
     24 OAM          2.4690     2.6820     0.9330 o          1 5L2      -0.546500
     25 NAF          4.8700     2.2020     0.5590 n8         1 5L2      -1.070100
     26 CB           3.3790    -1.7200     0.3400 c5         1 5L2      -0.077400
     27 CA           1.9220    -2.1120     0.0000 c5         1 5L2       0.197500
     28 C            1.6690    -3.5630     0.3600 c          1 5L2       0.582100
     29 O            1.1680    -3.9340     1.3870 o          1 5L2      -0.462000
     30 OAS          2.1280    -4.3560    -0.5900 os         1 5L2      -0.440100
     31 CAA          2.0390    -5.7670    -0.3740 c3         1 5L2       0.151900
     32 H1          -0.0640     1.2530     0.5170 h2         1 5L2       0.130700
     33 H2           0.6840    -0.0410    -1.5920 h1         1 5L2       0.038700
     34 H3          -1.3290    -0.9820    -2.3720 h1         1 5L2       0.067700
     35 H4          -3.3720     0.1170    -2.8090 h1         1 5L2       0.035700
     36 H5          -3.0640    -0.6210    -0.5920 h1         1 5L2       0.058700
     37 H6          -4.2500     2.1810    -0.4170 h1         1 5L2       0.071700
     38 H7          -5.0710     0.7640    -1.0950 h1         1 5L2       0.071700
     39 H8           0.6940     1.9800    -2.5680 ho         1 5L2       0.525000
     40 H9          -1.2720    -0.1190    -4.4270 ho         1 5L2       0.455000
     41 H10         -2.1920     2.2270    -3.2890 ho         1 5L2       0.521000
     42 H11         -5.2580     0.9950     3.5130 hc         1 5L2       0.070700
     43 H12         -6.9860     0.7690     3.2010 hc         1 5L2       0.070700
     44 H13         -5.8300    -0.5410     2.8850 hc         1 5L2       0.070700
     45 H16          1.5330     0.5730     1.9290 h1         1 5L2       0.087200
     46 H17          4.1310    -0.0380     1.5180 h1         1 5L2       0.084700
     47 H18          5.6080     2.1020    -0.1290 hn         1 5L2       0.491000
     48 H19          5.0170     3.0020     1.1630 hn         1 5L2       0.491000
     49 H20          4.0350    -1.7790    -0.5260 hc         1 5L2       0.076700
     50 H21          3.7880    -2.3660     1.1180 hc         1 5L2       0.076700
     51 H22          1.7230    -1.9590    -1.0640 h1         1 5L2       0.097700
     52 H23          2.6140    -6.0700     0.5000 h1         1 5L2       0.052033
     53 H24          1.0040    -6.0840    -0.2550 h1         1 5L2       0.052033
     54 H25          2.4590    -6.2310    -1.2620 h1         1 5L2       0.052033
     55 H14          2.1680    -0.8970     2.6610 h1         1 5L2       0.087200
@<TRIPOS>BOND
     1     1     2 1   
     2     1    14 1   
     3     1    15 1   
     4     1    32 1   
     5     2     3 1   
     6     2     7 1   
     7     2    33 1   
     8     3     4 1   
     9     3     8 1   
    10     3    34 1   
    11     4     5 1   
    12     4     9 1   
    13     4    35 1   
    14     5     6 1   
    15     5    14 1   
    16     5    36 1   
    17     6    10 1   
    18     6    37 1   
    19     6    38 1   
    20     7    39 1   
    21     8    40 1   
    22     9    41 1   
    23    10    11 1   
    24    11    12 2   
    25    11    13 1   
    26    13    42 1   
    27    13    43 1   
    28    13    44 1   
    29    15    16 2   
    30    15    17 2   
    31    15    18 1   
    32    18    19 1   
    33    18    27 1   
    34    19    20 1   
    35    19    45 1   
    36    19    55 1   
    37    20    21 1   
    38    20    26 1   
    39    20    46 1   
    40    21    22 1   
    41    22    23 2   
    42    22    24 2   
    43    22    25 1   
    44    25    47 1   
    45    25    48 1   
    46    26    27 1   
    47    26    49 1   
    48    26    50 1   
    49    27    28 1   
    50    27    51 1   
    51    28    29 2   
    52    28    30 1   
    53    30    31 1   
    54    31    52 1   
    55    31    53 1   
    56    31    54 1   
@<TRIPOS>SUBSTRUCTURE
     1 5L2         1 TEMP              0 ****  ****    0 ROOT
