@<TRIPOS>MOLECULE
5L2
   55    56     1     0     0
SMALL
No Charge or Current Charge


@<TRIPOS>ATOM
      1 C1          -1.0890     0.8820    -0.4210 c6         1 5L2      -0.009700
      2 C2          -0.7200     0.8690    -1.9370 c6         1 5L2       0.177300
      3 C3          -1.7200    -0.0350    -2.7410 c6         1 5L2       0.089300
      4 C4          -3.1970     0.4030    -2.4540 c6         1 5L2       0.129300
      5 C5          -3.4430     0.3250    -0.9140 c6         1 5L2       0.154300
      6 C6          -4.8820     0.7640    -0.5230 c3         1 5L2       0.177600
      7 O2          -0.7950     2.2150    -2.4630 oh         1 5L2      -0.693000
      8 O3          -1.4250     0.0220    -4.1500 oh         1 5L2      -0.663000
      9 O4          -3.4000     1.7450    -2.9360 oh         1 5L2      -0.694000
     10 O6          -5.1260     0.4240     0.8590 os         1 5L2      -0.442100
     11 CAZ         -6.3430     0.7520     1.3930 c          1 5L2       0.598100
     12 OAG         -7.2440     1.3060     0.7800 o          1 5L2      -0.493000
     13 CAB         -6.4440     0.3340     2.8530 c3         1 5L2      -0.156100
     14 O5          -2.5070     1.1990    -0.2220 os         1 5L2      -0.373000
     15 SBN         -0.5300    -0.6170     0.5130 s6         1 5L2       1.165100
     16 OAN         -0.6580    -0.4170     1.9600 o          1 5L2      -0.517500
     17 OAO         -1.0730    -1.8350    -0.0960 o          1 5L2      -0.517500
     18 N            1.1560    -0.6250     0.1640 n3         1 5L2      -0.789500
     19 CD1          2.1200    -0.0720     1.1590 c5         1 5L2       0.200800
     20 CG           3.5330    -0.5190     0.6340 c5         1 5L2       0.199300
     21 OD2          4.3140     0.6370     0.2420 os         1 5L2      -0.574700
     22 SBM          5.0100     1.5800     1.3730 s6         1 5L2       1.404800
     23 OAL          4.8750     2.9820     0.9990 o          1 5L2      -0.546500
     24 OAM          4.7360     1.0800     2.7180 o          1 5L2      -0.546500
     25 NAF          6.5180     1.1730     0.9880 n8         1 5L2      -1.070100
     26 CB           3.2120    -1.3040    -0.6680 c5         1 5L2      -0.077400
     27 CA           1.7970    -1.8640    -0.3730 c5         1 5L2       0.197500
     28 C            1.8810    -3.1180     0.5790 c          1 5L2       0.582100
     29 O            1.5480    -3.1680     1.7570 o          1 5L2      -0.462000
     30 OAS          2.3760    -4.1970    -0.1130 os         1 5L2      -0.440100
     31 CAA          2.5210    -5.4470     0.5880 c3         1 5L2       0.151900
     32 H1          -0.4780     1.6400     0.0840 h2         1 5L2       0.130700
     33 H2           0.2990     0.4760    -2.0690 h1         1 5L2       0.038700
     34 H3          -1.6060    -1.0750    -2.4020 h1         1 5L2       0.067700
     35 H4          -3.8850    -0.2910    -2.9600 h1         1 5L2       0.035700
     36 H5          -3.3100    -0.7110    -0.5750 h1         1 5L2       0.058700
     37 H6          -4.9850     1.8440    -0.6890 h1         1 5L2       0.071700
     38 H7          -5.5980     0.2470    -1.1770 h1         1 5L2       0.071700
     39 H8           0.0610     2.6590    -2.2480 ho         1 5L2       0.525000
     40 H9          -1.3070     0.9780    -4.3540 ho         1 5L2       0.455000
     41 H10         -2.5290     2.1910    -2.7400 ho         1 5L2       0.521000
     42 H11         -5.6120     0.7810     3.4070 hc         1 5L2       0.070700
     43 H12         -7.4140     0.5850     3.2970 hc         1 5L2       0.070700
     44 H13         -6.2250    -0.7370     2.9290 hc         1 5L2       0.070700
     45 H16          2.0290     1.0200     1.2380 h1         1 5L2       0.087200
     46 H17          4.0760    -1.1350     1.3660 h1         1 5L2       0.084700
     47 H18          6.2900     0.6950     0.1210 hn         1 5L2       0.491000
     48 H19          6.8420     2.0850     0.6820 hn         1 5L2       0.491000
     49 H20          3.1830    -0.6370    -1.5380 hc         1 5L2       0.076700
     50 H21          3.9480    -2.0860    -0.8810 hc         1 5L2       0.076700
     51 H22          1.3170    -2.2040    -1.3000 h1         1 5L2       0.097700
     52 H23          3.2070    -5.3430     1.4390 h1         1 5L2       0.052033
     53 H24          1.5520    -5.8000     0.9650 h1         1 5L2       0.052033
     54 H25          2.9250    -6.2170    -0.0820 h1         1 5L2       0.052033
     55 H14          1.9530    -0.4860     2.1630 h1         1 5L2       0.087200
@<TRIPOS>BOND
     1     1     2 1   
     2     1    14 1   
     3     1    15 1   
     4     1    32 1   
     5     2     3 1   
     6     2     7 1   
     7     2    33 1   
     8     3     4 1   
     9     3     8 1   
    10     3    34 1   
    11     4     5 1   
    12     4     9 1   
    13     4    35 1   
    14     5     6 1   
    15     5    14 1   
    16     5    36 1   
    17     6    10 1   
    18     6    37 1   
    19     6    38 1   
    20     7    39 1   
    21     8    40 1   
    22     9    41 1   
    23    10    11 1   
    24    11    12 2   
    25    11    13 1   
    26    13    42 1   
    27    13    43 1   
    28    13    44 1   
    29    15    16 2   
    30    15    17 2   
    31    15    18 1   
    32    18    19 1   
    33    18    27 1   
    34    19    20 1   
    35    19    45 1   
    36    19    55 1   
    37    20    21 1   
    38    20    26 1   
    39    20    46 1   
    40    21    22 1   
    41    22    23 2   
    42    22    24 2   
    43    22    25 1   
    44    25    47 1   
    45    25    48 1   
    46    26    27 1   
    47    26    49 1   
    48    26    50 1   
    49    27    28 1   
    50    27    51 1   
    51    28    29 2   
    52    28    30 1   
    53    30    31 1   
    54    31    52 1   
    55    31    53 1   
    56    31    54 1   
@<TRIPOS>SUBSTRUCTURE
     1 5L2         1 TEMP              0 ****  ****    0 ROOT
