@<TRIPOS>MOLECULE
5L3
   52    53     1     0     0
SMALL
No Charge or Current Charge


@<TRIPOS>ATOM
      1 C1          -1.7480    -0.3620    -0.1870 c6         1 5L3      -0.064700
      2 O2          -3.9810     0.6790    -0.0510 os         1 5L3      -0.445100
      3 C5          -2.2250    -2.1500     1.4440 c6         1 5L3       0.138300
      4 CBI         -5.7250     2.2780     0.2660 c3         1 5L3      -0.151100
      5 CBE         -5.0550     1.2730    -0.6590 c          1 5L3       0.603100
      6 OBH         -5.3420     1.1490    -1.8410 o          1 5L3      -0.466000
      7 C2          -3.2080    -0.3500    -0.7210 c6         1 5L3       0.164300
      8 C3          -3.8330    -1.7740    -0.5240 c6         1 5L3       0.173300
      9 O3          -5.2140    -1.8410    -0.9130 oh         1 5L3      -0.643000
     10 C4          -3.7120    -2.2260     0.9650 c6         1 5L3       0.108300
     11 O4          -4.2810    -3.5460     1.1330 oh         1 5L3      -0.727000
     12 C6          -1.2730    -3.2230     0.7970 c3         1 5L3       0.136600
     13 O6           0.0920    -3.1120     1.2410 oh         1 5L3      -0.720000
     14 O5          -1.7150    -0.8100     1.2080 os         1 5L3      -0.398000
     15 SAG         -0.9360     1.2880    -0.4280 s6         1 5L3       1.244100
     16 OAH         -1.2490     1.7470    -1.7870 o          1 5L3      -0.515500
     17 OAJ         -1.1520     2.1780     0.7200 o          1 5L3      -0.515500
     18 NAB          0.7470     0.8850    -0.4450 n3         1 5L3      -0.794500
     19 CAC          1.6060     1.9430    -1.0330 c6         1 5L3       0.230300
     20 CAD          3.0550     1.4450    -1.2130 c6         1 5L3      -0.115900
     21 CAA          1.2830     0.4010     0.8540 c6         1 5L3       0.230300
     22 CAF          2.7270    -0.1180     0.6990 c6         1 5L3      -0.115900
     23 CAE          3.6510     0.9750     0.1280 c6         1 5L3       0.224300
     24 OAK          4.9490     0.4080    -0.1020 os         1 5L3      -0.589700
     25 SAL          6.2450     1.1890     0.4940 s6         1 5L3       1.405800
     26 OAN          6.2340     2.5960     0.0990 o          1 5L3      -0.540500
     27 OAO          6.4940     0.7510     1.8630 o          1 5L3      -0.540500
     28 NAM          7.3100     0.4130    -0.4270 n8         1 5L3      -1.054100
     29 H1          -1.1270    -1.0140    -0.8150 h2         1 5L3       0.071700
     30 H2          -2.2080    -2.3210     2.5290 h1         1 5L3       0.089700
     31 H3          -6.1020     1.7480     1.1470 hc         1 5L3       0.071367
     32 H4          -4.9570     2.9290     0.6980 hc         1 5L3       0.071367
     33 H5          -6.5110     2.8550    -0.2350 hc         1 5L3       0.071367
     34 H6          -3.1740    -0.1310    -1.8000 h1         1 5L3       0.110700
     35 H7          -3.2570    -2.4780    -1.1430 h1         1 5L3       0.044700
     36 H8          -5.5530    -2.6430    -0.4530 ho         1 5L3       0.462000
     37 H9          -4.2790    -1.5020     1.5720 h1         1 5L3       0.073700
     38 H10         -4.3850    -3.7070     2.1020 ho         1 5L3       0.515000
     39 H11         -1.6620    -4.2180     1.0530 h1         1 5L3       0.032200
     40 H12         -1.3180    -3.1380    -0.2960 h1         1 5L3       0.032200
     41 H13          0.5990    -3.8380     0.8070 ho         1 5L3       0.513000
     42 H16          1.2310     2.2500    -2.0200 h1         1 5L3       0.067450
     43 H17          1.6060     2.8410    -0.3960 h1         1 5L3       0.067450
     44 H18          3.0720     0.6220    -1.9400 hc         1 5L3       0.075450
     45 H19          3.6710     2.2510    -1.6330 hc         1 5L3       0.075450
     46 H20          1.2640     1.2030     1.6080 h1         1 5L3       0.067450
     47 H21          3.1040    -0.4530     1.6730 hc         1 5L3       0.075450
     48 H22          2.7300    -0.9960     0.0390 hc         1 5L3       0.075450
     49 H23          3.7060     1.8150     0.8380 h1         1 5L3       0.033700
     50 H24          6.6340    -0.2190    -0.8500 hn         1 5L3       0.487000
     51 H25          7.7450    -0.1540     0.2940 hn         1 5L3       0.487000
     52 H14          0.6790    -0.4240     1.2530 h1         1 5L3       0.067450
@<TRIPOS>BOND
     1     1     7 1   
     2     1    14 1   
     3     1    15 1   
     4     1    29 1   
     5     2     5 1   
     6     2     7 1   
     7     3    10 1   
     8     3    12 1   
     9     3    14 1   
    10     3    30 1   
    11     4     5 1   
    12     4    31 1   
    13     4    32 1   
    14     4    33 1   
    15     5     6 2   
    16     7     8 1   
    17     7    34 1   
    18     8     9 1   
    19     8    10 1   
    20     8    35 1   
    21     9    36 1   
    22    10    11 1   
    23    10    37 1   
    24    11    38 1   
    25    12    13 1   
    26    12    39 1   
    27    12    40 1   
    28    13    41 1   
    29    15    16 2   
    30    15    17 2   
    31    15    18 1   
    32    18    19 1   
    33    18    21 1   
    34    19    20 1   
    35    19    42 1   
    36    19    43 1   
    37    20    23 1   
    38    20    44 1   
    39    20    45 1   
    40    21    22 1   
    41    21    46 1   
    42    21    52 1   
    43    22    23 1   
    44    22    47 1   
    45    22    48 1   
    46    23    24 1   
    47    23    49 1   
    48    24    25 1   
    49    25    26 2   
    50    25    27 2   
    51    25    28 1   
    52    28    50 1   
    53    28    51 1   
@<TRIPOS>SUBSTRUCTURE
     1 5L3         1 TEMP              0 ****  ****    0 ROOT
