@<TRIPOS>MOLECULE
5L3
   52    53     1     0     0
SMALL
abcg2


@<TRIPOS>ATOM
      1 C1          -1.5650     0.0240    -0.2870 c6         1 5L3      -0.064700
      2 O2          -3.8020     0.4940     0.3760 os         1 5L3      -0.445100
      3 C5          -1.4940    -2.1040     0.7430 c6         1 5L3       0.138300
      4 CBI         -5.4690     1.8380     1.3320 c3         1 5L3      -0.151100
      5 CBE         -4.8090     1.3210     0.0890 c          1 5L3       0.603100
      6 OBH         -5.1300     1.6290    -1.0290 o          1 5L3      -0.466000
      7 C2          -3.0330    -0.0760    -0.6750 c6         1 5L3       0.164300
      8 C3          -3.3970    -1.5490    -0.8260 c6         1 5L3       0.173300
      9 O3          -4.7740    -1.6290    -1.0590 oh         1 5L3      -0.643000
     10 C4          -2.9800    -2.3320     0.4170 c6         1 5L3       0.108300
     11 O4          -3.2700    -3.6860     0.1680 oh         1 5L3      -0.727000
     12 C6          -0.5410    -2.7980    -0.2180 c3         1 5L3       0.136600
     13 O6           0.7750    -2.5400     0.2080 oh         1 5L3      -0.720000
     14 O5          -1.2500    -0.7030     0.8510 os         1 5L3      -0.398000
     15 SAG         -1.0990     1.7470     0.0840 s6         1 5L3       1.244100
     16 OAH         -1.5620     2.5120    -1.0650 o          1 5L3      -0.515500
     17 OAJ         -1.5650     2.0870     1.4160 o          1 5L3      -0.515500
     18 NAB          0.5270     1.7760     0.1060 n3         1 5L3      -0.794500
     19 CAC          1.3020     1.7520    -1.1290 c6         1 5L3       0.230300
     20 CAD          2.2260     0.5420    -1.1730 c6         1 5L3      -0.115900
     21 CAA          1.3040     1.6920     1.3370 c6         1 5L3       0.230300
     22 CAF          2.2260     0.4800     1.3260 c6         1 5L3      -0.115900
     23 CAE          3.0840     0.5030     0.0760 c6         1 5L3       0.224300
     24 OAK          3.8920    -0.6990     0.0700 os         1 5L3      -0.589700
     25 SAL          5.4600    -0.5860    -0.2210 s6         1 5L3       1.405800
     26 OAN          5.9020    -1.9560    -0.1800 o          1 5L3      -0.540500
     27 OAO          5.6690     0.2300    -1.3970 o          1 5L3      -0.540500
     28 NAM          6.1330     0.2050     1.0330 n8         1 5L3      -1.054100
     29 H1          -0.9600    -0.2530    -1.1640 h2         1 5L3       0.071700
     30 H2          -1.2930    -2.4890     1.7470 h1         1 5L3       0.089700
     31 H3          -5.0900     1.3740     2.2380 hc         1 5L3       0.071367
     32 H4          -5.3060     2.9150     1.3960 hc         1 5L3       0.071367
     33 H5          -6.5440     1.6790     1.2670 hc         1 5L3       0.071367
     34 H6          -3.2050     0.4450    -1.6180 h1         1 5L3       0.110700
     35 H7          -2.8290    -1.9250    -1.6910 h1         1 5L3       0.044700
     36 H8          -5.0150    -2.5600    -1.1160 ho         1 5L3       0.462000
     37 H9          -3.5660    -1.9620     1.2680 h1         1 5L3       0.073700
     38 H10         -3.3570    -4.1480     1.0080 ho         1 5L3       0.515000
     39 H11         -0.7700    -3.8690    -0.2000 h1         1 5L3       0.032200
     40 H12         -0.6970    -2.4680    -1.2530 h1         1 5L3       0.032200
     41 H13          1.3810    -2.9090    -0.4390 ho         1 5L3       0.513000
     42 H16          0.6410     1.7490    -1.9940 h1         1 5L3       0.067450
     43 H17          1.8870     2.6760    -1.1830 h1         1 5L3       0.067450
     44 H18          1.6370    -0.3760    -1.2310 hc         1 5L3       0.075450
     45 H19          2.8480     0.6040    -2.0680 hc         1 5L3       0.075450
     46 H20          1.8910     2.6110     1.4260 h1         1 5L3       0.067450
     47 H21          2.8510     0.5060     2.2210 hc         1 5L3       0.075450
     48 H22          1.6320    -0.4350     1.3430 hc         1 5L3       0.075450
     49 H23          3.7290     1.3900     0.1020 h1         1 5L3       0.033700
     50 H24          5.9880    -0.2220     1.9400 hn         1 5L3       0.487000
     51 H25          5.9980     1.2090     1.0440 hn         1 5L3       0.487000
     52 H14          0.6420     1.6510     2.1980 h1         1 5L3       0.067450
@<TRIPOS>BOND
     1     1     7 1   
     2     1    14 1   
     3     1    15 1   
     4     1    29 1   
     5     2     5 1   
     6     2     7 1   
     7     3    10 1   
     8     3    12 1   
     9     3    14 1   
    10     3    30 1   
    11     4     5 1   
    12     4    31 1   
    13     4    32 1   
    14     4    33 1   
    15     5     6 2   
    16     7     8 1   
    17     7    34 1   
    18     8     9 1   
    19     8    10 1   
    20     8    35 1   
    21     9    36 1   
    22    10    11 1   
    23    10    37 1   
    24    11    38 1   
    25    12    13 1   
    26    12    39 1   
    27    12    40 1   
    28    13    41 1   
    29    15    16 2   
    30    15    17 2   
    31    15    18 1   
    32    18    19 1   
    33    18    21 1   
    34    19    20 1   
    35    19    42 1   
    36    19    43 1   
    37    20    23 1   
    38    20    44 1   
    39    20    45 1   
    40    21    22 1   
    41    21    46 1   
    42    21    52 1   
    43    22    23 1   
    44    22    47 1   
    45    22    48 1   
    46    23    24 1   
    47    23    49 1   
    48    24    25 1   
    49    25    26 2   
    50    25    27 2   
    51    25    28 1   
    52    28    50 1   
    53    28    51 1   
@<TRIPOS>SUBSTRUCTURE
     1 5L3         1 TEMP              0 ****  ****    0 ROOT
