@<TRIPOS>MOLECULE
5L4
   55    58     1     0     0
SMALL
bcc


@<TRIPOS>ATOM
      1 C13          2.9820     1.3490    -0.5290 ca         1 5L4      -0.126000
      2 C18         -3.4760    -0.2620    -0.6380 ca         1 5L4      -0.053700
      3 C17          5.1370     2.4920     0.1040 c3         1 5L4      -0.038100
      4 C16          3.5720    -0.8370     1.0580 ca         1 5L4      -0.111000
      5 C15          4.4520     0.2320     0.9850 ca         1 5L4      -0.126000
      6 C19         -4.6670    -0.8310    -1.0770 ca         1 5L4       0.394200
      7 C21         -5.6420     1.2060    -1.3690 ca         1 5L4       0.391200
      8 C22         -4.5070     1.8760    -0.9360 ca         1 5L4      -0.267300
      9 C23         -3.3990     1.1420    -0.5370 ca         1 5L4       0.107600
     10 C24          6.0640     2.3350    -1.0940 c3         1 5L4       0.141400
     11 C11          2.3810    -0.8280     0.3330 cp         1 5L4      -0.128500
     12 C12          2.1020     0.2820    -0.4660 ca         1 5L4      -0.111000
     13 C27         -1.9080     3.0680    -0.5140 c6         1 5L4       0.146300
     14 C1           1.7880    -3.2510     0.7400 ca         1 5L4       0.393900
     15 C2           1.4190    -1.9370     0.4230 cp         1 5L4       0.279500
     16 N3           0.1420    -1.6920     0.1850 nb         1 5L4      -0.616000
     17 C4          -0.7620    -2.6510     0.2690 ca         1 5L4       0.151500
     18 C5          -0.3780    -3.9720     0.6180 ca         1 5L4       0.638900
     19 N6           0.9200    -4.2310     0.8340 nb         1 5L4      -0.745000
     20 N7          -1.2260    -4.9960     0.7380 nv         1 5L4      -0.945500
     21 C8          -2.1750    -2.2690    -0.0020 c          1 5L4       0.601600
     22 O9          -3.1000    -3.0640     0.0990 o          1 5L4      -0.623100
     23 N10         -2.3170    -0.9740    -0.3540 ns         1 5L4      -0.444100
     24 C14          4.1720     1.3450     0.1970 ca         1 5L4      -0.072300
     25 N20         -5.7300    -0.1140    -1.4270 nb         1 5L4      -0.656000
     26 O25          6.9390     3.4390    -1.1300 oh         1 5L4      -0.600800
     27 N26         -2.2080     1.7130    -0.0780 nh         1 5L4      -0.649000
     28 C28         -0.4690     3.3880    -0.1560 c6         1 5L4       0.125900
     29 O29         -0.2330     3.2530     1.2270 os         1 5L4      -0.399600
     30 C30         -0.5380     1.9510     1.6730 c6         1 5L4       0.125900
     31 C31         -1.9730     1.5750     1.3610 c6         1 5L4       0.146300
     32 H37          2.7370     2.2010    -1.1530 ha         1 5L4       0.132500
     33 H41          5.7350     2.5500     1.0160 hc         1 5L4       0.062700
     34 H40          4.5900     3.4340     0.0130 hc         1 5L4       0.062700
     35 H39          3.8130    -1.6670     1.7090 ha         1 5L4       0.137000
     36 H38          5.3650     0.2060     1.5680 ha         1 5L4       0.132500
     37 H42         -4.7620    -1.9030    -1.1670 h4         1 5L4       0.046100
     38 H43         -6.5170     1.7700    -1.6730 h4         1 5L4       0.020100
     39 H44         -4.5080     2.9570    -0.8990 ha         1 5L4       0.142000
     40 H45          6.6100     1.3870    -1.0040 h1         1 5L4       0.020200
     41 H46          5.4610     2.2670    -2.0090 h1         1 5L4       0.020200
     42 H36          1.1870     0.3070    -1.0440 ha         1 5L4       0.137000
     43 H48         -2.5740     3.8100    -0.0490 h1         1 5L4       0.049950
     44 H32          2.8270    -3.5130     0.9050 h4         1 5L4       0.031100
     45 H34         -2.2160    -4.8610     0.6220 hn         1 5L4       0.465300
     46 H33         -0.8710    -5.8960     1.0090 hn         1 5L4       0.465300
     47 H35         -1.4610    -0.4290    -0.3720 hn         1 5L4       0.365500
     48 H47          7.5020     3.3530    -1.9050 ho         1 5L4       0.406000
     49 H50          0.1980     2.7280    -0.7280 h1         1 5L4       0.055700
     50 H51         -0.2400     4.4180    -0.4300 h1         1 5L4       0.055700
     51 H53          0.1380     1.2170     1.2130 h1         1 5L4       0.055700
     52 H52         -0.3760     1.9290     2.7520 h1         1 5L4       0.055700
     53 H55         -2.6650     2.2170     1.9250 h1         1 5L4       0.049950
     54 H54         -2.1500     0.5480     1.6830 h1         1 5L4       0.049950
     55 H49         -2.0320     3.1390    -1.5960 h1         1 5L4       0.049950
@<TRIPOS>BOND
     1     1    12 ar  
     2     1    24 ar  
     3     1    32 1   
     4     2     6 ar  
     5     2     9 ar  
     6     2    23 1   
     7     3    10 1   
     8     3    24 1   
     9     3    33 1   
    10     3    34 1   
    11     4     5 ar  
    12     4    11 ar  
    13     4    35 1   
    14     5    24 ar  
    15     5    36 1   
    16     6    25 ar  
    17     6    37 1   
    18     7     8 ar  
    19     7    25 ar  
    20     7    38 1   
    21     8     9 ar  
    22     8    39 1   
    23     9    27 1   
    24    10    26 1   
    25    10    40 1   
    26    10    41 1   
    27    11    12 ar  
    28    11    15 1   
    29    12    42 1   
    30    13    27 1   
    31    13    28 1   
    32    13    43 1   
    33    13    55 1   
    34    14    15 ar  
    35    14    19 ar  
    36    14    44 1   
    37    15    16 ar  
    38    16    17 ar  
    39    17    18 ar  
    40    17    21 1   
    41    18    19 ar  
    42    18    20 1   
    43    20    45 1   
    44    20    46 1   
    45    21    22 2   
    46    21    23 1   
    47    23    47 1   
    48    26    48 1   
    49    27    31 1   
    50    28    29 1   
    51    28    49 1   
    52    28    50 1   
    53    29    30 1   
    54    30    31 1   
    55    30    51 1   
    56    30    52 1   
    57    31    53 1   
    58    31    54 1   
@<TRIPOS>SUBSTRUCTURE
     1 5L4         1 TEMP              0 ****  ****    0 ROOT
