@<TRIPOS>MOLECULE
5L4
   55    58     1     0     0
SMALL
No Charge or Current Charge


@<TRIPOS>ATOM
      1 C13          3.1190     1.4140    -0.3780 ca         1 5L4      -0.108000
      2 C18         -3.6880    -0.2750    -0.4950 ca         1 5L4      -0.081000
      3 C17          5.3370     2.4530     0.3000 c3         1 5L4      -0.038100
      4 C16          3.6900    -0.9310     1.0490 ca         1 5L4      -0.093000
      5 C15          4.6150     0.1270     1.0320 ca         1 5L4      -0.108000
      6 C19         -4.9110    -0.8940    -0.8370 ca         1 5L4       0.328900
      7 C21         -5.9970     1.1440    -1.0200 ca         1 5L4       0.325900
      8 C22         -4.8300     1.8450    -0.6940 ca         1 5L4      -0.184000
      9 C23         -3.6540     1.1320    -0.4250 ca         1 5L4       0.246000
     10 C24          6.3110     2.3500    -0.8900 c3         1 5L4       0.164600
     11 C11          2.4550    -0.8420     0.3550 cp         1 5L4      -0.128500
     12 C12          2.1950     0.3570    -0.3620 ca         1 5L4      -0.093000
     13 C27         -2.0360     3.0280    -0.8410 c6         1 5L4       0.146300
     14 C1           1.8290    -3.3380     0.6120 ca         1 5L4       0.393900
     15 C2           1.4580    -1.9700     0.3770 cp         1 5L4       0.279500
     16 N3           0.1560    -1.6400     0.1530 nb         1 5L4      -0.616000
     17 C4          -0.7570    -2.6690     0.1580 ca         1 5L4       0.151500
     18 C5          -0.3310    -4.0190     0.3820 ca         1 5L4       0.638900
     19 N6           0.9370    -4.3710     0.6150 nb         1 5L4      -0.745000
     20 N7          -1.0910    -5.1290     0.3990 nv         1 5L4      -1.055900
     21 C8          -2.2270    -2.3480    -0.0560 c          1 5L4       0.534600
     22 O9          -3.1160    -3.1980    -0.0310 o          1 5L4      -0.623100
     23 N10         -2.4850    -0.9990    -0.2530 ns         1 5L4      -0.118000
     24 C14          4.3340     1.3070     0.3200 ca         1 5L4      -0.072300
     25 N20         -6.0470    -0.2030    -1.0950 nb         1 5L4      -0.656000
     26 O25          7.2330     3.4460    -0.8650 oh         1 5L4      -0.663000
     27 N26         -2.4630     1.8110    -0.0780 nh         1 5L4      -0.787400
     28 C28         -0.5310     3.3630    -0.6100 c6         1 5L4       0.149100
     29 O29         -0.2360     3.4460     0.8040 os         1 5L4      -0.446000
     30 C30         -0.5220     2.2120     1.5050 c6         1 5L4       0.149100
     31 C31         -2.0250     1.8290     1.3560 c6         1 5L4       0.146300
     32 H37          2.8890     2.3190    -0.9380 ha         1 5L4       0.114500
     33 H41          5.9130     2.4680     1.2330 hc         1 5L4       0.062700
     34 H40          4.8110     3.4140     0.2490 hc         1 5L4       0.062700
     35 H39          3.9360    -1.8210     1.6250 ha         1 5L4       0.119000
     36 H38          5.5510     0.0300     1.5770 ha         1 5L4       0.114500
     37 H42         -4.9990    -1.9740    -0.9310 h4         1 5L4       0.046100
     38 H43         -6.9240     1.6770    -1.2290 h4         1 5L4       0.020100
     39 H44         -4.8510     2.9280    -0.6410 ha         1 5L4       0.124000
     40 H45          6.8520     1.3960    -0.8310 h1         1 5L4       0.020200
     41 H46          5.7380     2.3550    -1.8270 h1         1 5L4       0.020200
     42 H36          1.2680     0.4660    -0.9200 ha         1 5L4       0.119000
     43 H48         -2.6390     3.8960    -0.5360 h1         1 5L4       0.049950
     44 H32          2.8690    -3.6110     0.7800 h4         1 5L4       0.031100
     45 H34         -2.0980    -4.9910     0.4630 hn         1 5L4       0.520500
     46 H33         -0.6960    -5.9310     0.8750 hn         1 5L4       0.520500
     47 H35         -1.6600    -0.4120    -0.2070 hn         1 5L4       0.199000
     48 H47          7.8300     3.3350    -1.6390 ho         1 5L4       0.445000
     49 H50          0.0980     2.5860    -1.0670 h1         1 5L4       0.055700
     50 H51         -0.2860     4.3220    -1.0870 h1         1 5L4       0.055700
     51 H53          0.1080     1.4090     1.0990 h1         1 5L4       0.055700
     52 H52         -0.2720     2.3340     2.5680 h1         1 5L4       0.055700
     53 H55         -2.6310     2.5520     1.9210 h1         1 5L4       0.049950
     54 H54         -2.1810     0.8440     1.8180 h1         1 5L4       0.049950
     55 H49         -2.1990     2.8760    -1.9180 h1         1 5L4       0.049950
@<TRIPOS>BOND
     1     1    12 ar  
     2     1    24 ar  
     3     1    32 1   
     4     2     6 ar  
     5     2     9 ar  
     6     2    23 1   
     7     3    10 1   
     8     3    24 1   
     9     3    33 1   
    10     3    34 1   
    11     4     5 ar  
    12     4    11 ar  
    13     4    35 1   
    14     5    24 ar  
    15     5    36 1   
    16     6    25 ar  
    17     6    37 1   
    18     7     8 ar  
    19     7    25 ar  
    20     7    38 1   
    21     8     9 ar  
    22     8    39 1   
    23     9    27 1   
    24    10    26 1   
    25    10    40 1   
    26    10    41 1   
    27    11    12 ar  
    28    11    15 1   
    29    12    42 1   
    30    13    27 1   
    31    13    28 1   
    32    13    43 1   
    33    13    55 1   
    34    14    15 ar  
    35    14    19 ar  
    36    14    44 1   
    37    15    16 ar  
    38    16    17 ar  
    39    17    18 ar  
    40    17    21 1   
    41    18    19 ar  
    42    18    20 1   
    43    20    45 1   
    44    20    46 1   
    45    21    22 2   
    46    21    23 1   
    47    23    47 1   
    48    26    48 1   
    49    27    31 1   
    50    28    29 1   
    51    28    49 1   
    52    28    50 1   
    53    29    30 1   
    54    30    31 1   
    55    30    51 1   
    56    30    52 1   
    57    31    53 1   
    58    31    54 1   
@<TRIPOS>SUBSTRUCTURE
     1 5L4         1 TEMP              0 ****  ****    0 ROOT
