@<TRIPOS>MOLECULE
5L6
   46    47     1     0     0
SMALL
abcg2


@<TRIPOS>ATOM
      1 C4           2.6060     1.3000    -0.0760 ca         1 5L6      -0.178500
      2 C5           1.3690     1.9230    -0.1670 ca         1 5L6      -0.071000
      3 C6           1.4970    -0.7390     0.5300 ca         1 5L6      -0.178500
      4 N1          -2.8780    -0.9350    -0.0020 n3         1 5L6      -0.721600
      5 C7           0.2720    -0.1030     0.4430 ca         1 5L6      -0.071000
      6 C8           0.1760     1.2490     0.0960 ca         1 5L6      -0.037000
      7 N2          -2.6540    -4.6520    -0.3140 n8         1 5L6      -1.003200
      8 C9          -1.1120     1.9460     0.0220 cc         1 5L6      -0.077000
      9 C10         -1.3190     3.2610     0.3800 cd         1 5L6      -0.195000
     10 C11         -3.2620     2.4880    -0.3690 cd         1 5L6      -0.199000
     11 C12         -2.3670     1.4490    -0.4560 cc         1 5L6      -0.138300
     12 C13         -2.6660     0.0950    -1.0140 c3         1 5L6       0.243100
     13 C14         -4.0730    -0.6800     0.7730 c3         1 5L6       0.151100
     14 C15         -2.8840    -2.2520    -0.6120 c3         1 5L6       0.161800
     15 C16         -2.8170    -3.3920     0.3950 c3         1 5L6       0.147800
     16 N           -2.6180     3.5690     0.1390 na         1 5L6      -0.105000
     17 C3           2.6820    -0.0450     0.2810 ca         1 5L6       0.144100
     18 O            3.8250    -0.7460     0.4300 os         1 5L6      -0.358100
     19 C1           5.0770    -0.1930     0.0190 c3         1 5L6       0.179300
     20 C2           6.1500    -1.0140     0.7050 c3         1 5L6      -0.107100
     21 C            5.2120    -0.2260    -1.4950 c3         1 5L6      -0.107100
     22 H1           3.4930     1.8790    -0.2960 ha         1 5L6       0.115500
     23 H2           1.3380     2.9650    -0.4630 ha         1 5L6       0.125000
     24 H3           1.5450    -1.7860     0.8050 ha         1 5L6       0.115500
     25 H5          -0.6350    -0.6600     0.6540 ha         1 5L6       0.125000
     26 H6          -1.7210    -4.7000    -0.7050 hn         1 5L6       0.393500
     27 H7          -2.7160    -5.4210     0.3400 hn         1 5L6       0.393500
     28 H9          -0.6380     3.9860     0.7970 h4         1 5L6       0.146000
     29 H10         -4.3050     2.5290    -0.6400 h4         1 5L6       0.143000
     30 H11         -1.8270    -0.2250    -1.6380 h1         1 5L6       0.035700
     31 H12         -3.5370     0.1700    -1.6880 h1         1 5L6       0.035700
     32 H13         -4.1770    -1.4090     1.5760 h1         1 5L6       0.029367
     33 H14         -4.0150     0.3040     1.2370 h1         1 5L6       0.029367
     34 H15         -4.9930    -0.7090     0.1670 h1         1 5L6       0.029367
     35 H16         -3.7580    -2.4010    -1.2700 h1         1 5L6       0.037200
     36 H17         -2.0000    -2.3210    -1.2540 h1         1 5L6       0.037200
     37 H18         -3.7440    -3.4510     0.9690 h1         1 5L6       0.034700
     38 H19         -2.0140    -3.1760     1.1140 h1         1 5L6       0.034700
     39 H20         -3.0420     4.4630     0.3240 hn         1 5L6       0.344000
     40 H21          5.1560     0.8420     0.3730 h1         1 5L6       0.040700
     41 H22          6.0910    -2.0640     0.4130 hc         1 5L6       0.045367
     42 H23          7.1350    -0.6430     0.4250 hc         1 5L6       0.045367
     43 H24          6.0650    -0.9520     1.7900 hc         1 5L6       0.045367
     44 H25          5.1650    -1.2530    -1.8620 hc         1 5L6       0.045367
     45 H26          4.4330     0.3510    -1.9930 hc         1 5L6       0.045367
     46 H27          6.1730     0.1940    -1.7910 hc         1 5L6       0.045367
@<TRIPOS>BOND
     1     1     2 ar  
     2     1    17 ar  
     3     1    22 1   
     4     2     6 ar  
     5     2    23 1   
     6     3     5 ar  
     7     3    17 ar  
     8     3    24 1   
     9     4    12 1   
    10     4    13 1   
    11     4    14 1   
    12     5     6 ar  
    13     5    25 1   
    14     6     8 1   
    15     7    15 1   
    16     7    26 1   
    17     7    27 1   
    18     8     9 2   
    19     8    11 1   
    20     9    16 1   
    21     9    28 1   
    22    10    11 2   
    23    10    16 1   
    24    10    29 1   
    25    11    12 1   
    26    12    30 1   
    27    12    31 1   
    28    13    32 1   
    29    13    33 1   
    30    13    34 1   
    31    14    15 1   
    32    14    35 1   
    33    14    36 1   
    34    15    37 1   
    35    15    38 1   
    36    16    39 1   
    37    17    18 1   
    38    18    19 1   
    39    19    20 1   
    40    19    21 1   
    41    19    40 1   
    42    20    41 1   
    43    20    42 1   
    44    20    43 1   
    45    21    44 1   
    46    21    45 1   
    47    21    46 1   
@<TRIPOS>SUBSTRUCTURE
     1 5L6         1 TEMP              0 ****  ****    0 ROOT
