@<TRIPOS>MOLECULE
5L6
   46    47     1     0     0
SMALL
No Charge or Current Charge


@<TRIPOS>ATOM
      1 C4           2.7220     1.3810     0.0580 ca         1 5L6      -0.178500
      2 C5           1.4550     1.9850    -0.0450 ca         1 5L6      -0.071000
      3 C6           1.6660    -0.7930     0.1930 ca         1 5L6      -0.178500
      4 N1          -3.0460    -1.0080     0.0310 n3         1 5L6      -0.721600
      5 C7           0.4010    -0.1890     0.0890 ca         1 5L6      -0.071000
      6 C8           0.2690     1.2110    -0.0390 ca         1 5L6      -0.037000
      7 N2          -3.2410    -4.8880    -0.0700 n8         1 5L6      -1.003200
      8 C9          -1.0550     1.8670    -0.1530 cc         1 5L6      -0.077000
      9 C10         -1.1870     3.1810     0.2290 cd         1 5L6      -0.195000
     10 C11         -3.2440     2.3950    -0.3660 cd         1 5L6      -0.199000
     11 C12         -2.3470     1.3650    -0.4960 cc         1 5L6      -0.138300
     12 C13         -2.6700    -0.0210    -1.0170 c3         1 5L6       0.243100
     13 C14         -4.2460    -0.6010     0.8030 c3         1 5L6       0.151100
     14 C15         -3.1410    -2.3870    -0.5250 c3         1 5L6       0.161800
     15 C16         -3.2780    -3.5290     0.5290 c3         1 5L6       0.147800
     16 N           -2.5360     3.5090     0.0880 na         1 5L6      -0.105000
     17 C3           2.8330    -0.0190     0.1690 ca         1 5L6       0.144100
     18 O            4.0430    -0.6760     0.2830 os         1 5L6      -0.358100
     19 C1           5.3180    -0.0370     0.0730 c3         1 5L6       0.179300
     20 C2           6.3880    -0.9910     0.6360 c3         1 5L6      -0.107100
     21 C            5.5010     0.2130    -1.4410 c3         1 5L6      -0.107100
     22 H1           3.6000     2.0190     0.0480 ha         1 5L6       0.115500
     23 H2           1.4120     3.0650    -0.1540 ha         1 5L6       0.125000
     24 H3           1.7400    -1.8720     0.2990 ha         1 5L6       0.115500
     25 H5          -0.4710    -0.8270     0.1470 ha         1 5L6       0.125000
     26 H6          -2.3170    -5.0420    -0.4920 hn         1 5L6       0.393500
     27 H7          -3.2790    -5.5860     0.6830 hn         1 5L6       0.393500
     28 H9          -0.4610     3.8930     0.6030 h4         1 5L6       0.146000
     29 H10         -4.3110     2.4200    -0.5580 h4         1 5L6       0.143000
     30 H11         -1.8040    -0.3810    -1.5880 h1         1 5L6       0.035700
     31 H12         -3.4910     0.0720    -1.7410 h1         1 5L6       0.035700
     32 H13         -4.4550    -1.3080     1.6160 h1         1 5L6       0.029367
     33 H14         -4.1020     0.3830     1.2670 h1         1 5L6       0.029367
     34 H15         -5.1310    -0.5500     0.1540 h1         1 5L6       0.029367
     35 H16         -3.9910    -2.4490    -1.2180 h1         1 5L6       0.037200
     36 H17         -2.2370    -2.5960    -1.1130 h1         1 5L6       0.037200
     37 H18         -4.2290    -3.4220     1.0680 h1         1 5L6       0.034700
     38 H19         -2.4590    -3.4470     1.2570 h1         1 5L6       0.034700
     39 H20         -2.9420     4.4190     0.2890 hn         1 5L6       0.344000
     40 H21          5.3850     0.9100     0.6230 h1         1 5L6       0.040700
     41 H22          6.3570    -1.9610     0.1250 hc         1 5L6       0.045367
     42 H23          7.3890    -0.5640     0.5050 hc         1 5L6       0.045367
     43 H24          6.2270    -1.1580     1.7080 hc         1 5L6       0.045367
     44 H25          5.4150    -0.7250    -2.0030 hc         1 5L6       0.045367
     45 H26          4.7500     0.9130    -1.8240 hc         1 5L6       0.045367
     46 H27          6.4900     0.6420    -1.6400 hc         1 5L6       0.045367
@<TRIPOS>BOND
     1     1     2 ar  
     2     1    17 ar  
     3     1    22 1   
     4     2     6 ar  
     5     2    23 1   
     6     3     5 ar  
     7     3    17 ar  
     8     3    24 1   
     9     4    12 1   
    10     4    13 1   
    11     4    14 1   
    12     5     6 ar  
    13     5    25 1   
    14     6     8 1   
    15     7    15 1   
    16     7    26 1   
    17     7    27 1   
    18     8     9 2   
    19     8    11 1   
    20     9    16 1   
    21     9    28 1   
    22    10    11 2   
    23    10    16 1   
    24    10    29 1   
    25    11    12 1   
    26    12    30 1   
    27    12    31 1   
    28    13    32 1   
    29    13    33 1   
    30    13    34 1   
    31    14    15 1   
    32    14    35 1   
    33    14    36 1   
    34    15    37 1   
    35    15    38 1   
    36    16    39 1   
    37    17    18 1   
    38    18    19 1   
    39    19    20 1   
    40    19    21 1   
    41    19    40 1   
    42    20    41 1   
    43    20    42 1   
    44    20    43 1   
    45    21    44 1   
    46    21    45 1   
    47    21    46 1   
@<TRIPOS>SUBSTRUCTURE
     1 5L6         1 TEMP              0 ****  ****    0 ROOT
