@<TRIPOS>MOLECULE
5L7
   45    47     1     0     0
SMALL
No Charge or Current Charge


@<TRIPOS>ATOM
      1 C1           2.9030    -0.1650     0.1270 ca         1 5L7       0.173100
      2 N1          -2.8810     1.7800     0.2980 nb         1 5L7      -0.670000
      3 C2           2.9680    -1.4510     0.7090 ca         1 5L7      -0.230000
      4 N2          -3.6860    -2.4430     0.2150 nc         1 5L7      -0.517800
      5 C3           4.1610    -2.1860     0.6710 ca         1 5L7      -0.035000
      6 C4           5.2960    -1.6420     0.0550 ca         1 5L7      -0.238000
      7 C5           5.2430    -0.3670    -0.5260 ca         1 5L7       0.170100
      8 C6           4.0450     0.3830    -0.5030 ca         1 5L7      -0.141300
      9 C7           3.9770     1.7790    -1.1330 c3         1 5L7      -0.023800
     10 C8           0.5360     0.1230     0.7880 c3         1 5L7       0.213900
     11 O2           6.3720     0.1340    -1.1050 oh         1 5L7      -0.533100
     12 O3           1.7450     0.5870     0.1600 os         1 5L7      -0.351100
     13 C9          -0.5520     1.1900     0.6560 ca         1 5L7      -0.113300
     14 C13         -1.9190     0.8440     0.4830 ca         1 5L7       0.422500
     15 C12         -2.5310     3.0840     0.3120 ca         1 5L7       0.341900
     16 C11         -1.2130     3.5140     0.5100 ca         1 5L7      -0.162000
     17 C10         -0.2040     2.5570     0.6840 ca         1 5L7      -0.051000
     18 C14         -2.3770    -0.5520     0.4840 cc         1 5L7      -0.214500
     19 N3          -3.3970    -1.1650    -0.2460 na         1 5L7       0.158800
     20 C17         -4.1080    -0.6210    -1.4320 c3         1 5L7       0.108300
     21 C19         -4.0220    -1.5580    -2.6590 c3         1 5L7      -0.102100
     22 C18         -5.5680    -0.2390    -1.1030 c3         1 5L7      -0.102100
     23 C16         -2.8850    -2.5800     1.2570 cd         1 5L7       0.231900
     24 C15         -2.0880    -1.4420     1.4820 cd         1 5L7      -0.222000
     25 H1           2.1060    -1.8960     1.1970 ha         1 5L7       0.123000
     26 H2           4.2060    -3.1770     1.1210 ha         1 5L7       0.113000
     27 H3           6.2180    -2.2190     0.0360 ha         1 5L7       0.115000
     28 H4           2.9940     1.9790    -1.5750 hc         1 5L7       0.043033
     29 H5           4.1680     2.5540    -0.3810 hc         1 5L7       0.043033
     30 H6           4.7090     1.9090    -1.9380 hc         1 5L7       0.043033
     31 H7           0.2100    -0.8070     0.3060 h1         1 5L7       0.054200
     32 H8           0.7090    -0.0800     1.8530 h1         1 5L7       0.054200
     33 H9           7.0840    -0.5330    -1.0110 ho         1 5L7       0.465000
     34 H10         -3.3350     3.8050     0.1660 h4         1 5L7       0.023100
     35 H11         -0.9820     4.5750     0.5190 ha         1 5L7       0.128000
     36 H12          0.8280     2.8740     0.8270 ha         1 5L7       0.138000
     37 H13         -3.5910     0.3020    -1.7200 h1         1 5L7       0.066700
     38 H14         -4.5550    -2.4990    -2.4760 hc         1 5L7       0.049867
     39 H15         -4.4660    -1.0800    -3.5400 hc         1 5L7       0.049867
     40 H16         -2.9760    -1.7930    -2.8900 hc         1 5L7       0.049867
     41 H17         -5.6000     0.4690    -0.2650 hc         1 5L7       0.049867
     42 H18         -6.0480     0.2350    -1.9670 hc         1 5L7       0.049867
     43 H19         -6.1510    -1.1250    -0.8260 hc         1 5L7       0.049867
     44 H20         -2.9240    -3.4920     1.8400 h4         1 5L7       0.036100
     45 H21         -1.4070    -1.3010     2.3150 ha         1 5L7       0.142000
@<TRIPOS>BOND
     1     1     3 ar  
     2     1     8 ar  
     3     1    12 1   
     4     2    14 ar  
     5     2    15 ar  
     6     3     5 ar  
     7     3    25 1   
     8     4    19 1   
     9     4    23 2   
    10     5     6 ar  
    11     5    26 1   
    12     6     7 ar  
    13     6    27 1   
    14     7     8 ar  
    15     7    11 1   
    16     8     9 1   
    17     9    28 1   
    18     9    29 1   
    19     9    30 1   
    20    10    12 1   
    21    10    13 1   
    22    10    31 1   
    23    10    32 1   
    24    11    33 1   
    25    13    14 ar  
    26    13    17 ar  
    27    14    18 1   
    28    15    16 ar  
    29    15    34 1   
    30    16    17 ar  
    31    16    35 1   
    32    17    36 1   
    33    18    19 1   
    34    18    24 2   
    35    19    20 1   
    36    20    21 1   
    37    20    22 1   
    38    20    37 1   
    39    21    38 1   
    40    21    39 1   
    41    21    40 1   
    42    22    41 1   
    43    22    42 1   
    44    22    43 1   
    45    23    24 1   
    46    23    44 1   
    47    24    45 1   
@<TRIPOS>SUBSTRUCTURE
     1 5L7         1 TEMP              0 ****  ****    0 ROOT
