@<TRIPOS>MOLECULE
5L7
   45    47     1     0     0
SMALL
bcc


@<TRIPOS>ATOM
      1 C1           2.8240    -0.2140     0.0250 ca         1 5L7       0.173100
      2 N1          -2.8440     1.7700     0.3290 nb         1 5L7      -0.670000
      3 C2           2.8200    -1.5380     0.4530 ca         1 5L7      -0.248000
      4 N2          -3.6230    -2.3480     0.2570 nc         1 5L7      -0.517800
      5 C3           4.0180    -2.2380     0.4700 ca         1 5L7      -0.053000
      6 C4           5.1970    -1.6400     0.0690 ca         1 5L7      -0.256000
      7 C5           5.1840    -0.3120    -0.3620 ca         1 5L7       0.170100
      8 C6           4.0000     0.4250    -0.3910 ca         1 5L7      -0.141300
      9 C7           3.9560     1.8580    -0.8380 c3         1 5L7      -0.023800
     10 C8           0.5070     0.0530     0.4880 c3         1 5L7       0.190700
     11 O2           6.3170     0.3040    -0.7600 oh         1 5L7      -0.494100
     12 O3           1.7140     0.5540    -0.0330 os         1 5L7      -0.327900
     13 C9          -0.5310     1.1370     0.4070 ca         1 5L7      -0.178600
     14 C13         -1.8990     0.8370     0.4300 ca         1 5L7       0.487800
     15 C12         -2.4850     3.0380     0.2150 ca         1 5L7       0.407200
     16 C11         -1.1600     3.4450     0.2130 ca         1 5L7      -0.245300
     17 C10         -0.1750     2.4780     0.3090 ca         1 5L7      -0.069000
     18 C14         -2.3720    -0.5440     0.6030 cc         1 5L7      -0.163800
     19 N3          -3.3320    -1.1230    -0.1570 na         1 5L7       0.137400
     20 C17         -4.0390    -0.5760    -1.3150 c3         1 5L7       0.079000
     21 C19         -4.0190    -1.5680    -2.4680 c3         1 5L7      -0.102100
     22 C18         -5.4500    -0.1660    -0.9230 c3         1 5L7      -0.102100
     23 C16         -2.8440    -2.5760     1.2980 cd         1 5L7       0.297200
     24 C15         -2.0240    -1.4740     1.5640 cd         1 5L7      -0.305300
     25 H1           1.9100    -2.0320     0.7640 ha         1 5L7       0.141000
     26 H2           4.0280    -3.2680     0.8020 ha         1 5L7       0.131000
     27 H3           6.1270    -2.1980     0.0910 ha         1 5L7       0.133000
     28 H4           3.2550     1.9990    -1.6620 hc         1 5L7       0.043033
     29 H5           3.6290     2.5150    -0.0290 hc         1 5L7       0.043033
     30 H6           4.9280     2.2110    -1.1700 hc         1 5L7       0.043033
     31 H7           0.1720    -0.8270    -0.0720 h1         1 5L7       0.054200
     32 H8           0.6440    -0.2610     1.5300 h1         1 5L7       0.054200
     33 H9           7.0630    -0.3030    -0.6920 ho         1 5L7       0.426000
     34 H10         -3.2860     3.7620     0.1280 h4         1 5L7       0.023100
     35 H11         -0.9080     4.4930     0.1330 ha         1 5L7       0.146000
     36 H12          0.8660     2.7700     0.2950 ha         1 5L7       0.156000
     37 H13         -3.4850     0.3140    -1.6120 h1         1 5L7       0.066700
     38 H14         -4.5800    -2.4700    -2.2280 hc         1 5L7       0.049867
     39 H15         -4.4750    -1.1090    -3.3450 hc         1 5L7       0.049867
     40 H16         -3.0000    -1.8530    -2.7300 hc         1 5L7       0.049867
     41 H17         -5.4280     0.5700    -0.1200 hc         1 5L7       0.049867
     42 H18         -5.9610     0.2780    -1.7770 hc         1 5L7       0.049867
     43 H19         -6.0310    -1.0280    -0.5930 hc         1 5L7       0.049867
     44 H20         -2.8930    -3.5180     1.8230 h4         1 5L7       0.036100
     45 H21         -1.3060    -1.3580     2.3580 ha         1 5L7       0.160000
@<TRIPOS>BOND
     1     1     3 ar  
     2     1     8 ar  
     3     1    12 1   
     4     2    14 ar  
     5     2    15 ar  
     6     3     5 ar  
     7     3    25 1   
     8     4    19 1   
     9     4    23 2   
    10     5     6 ar  
    11     5    26 1   
    12     6     7 ar  
    13     6    27 1   
    14     7     8 ar  
    15     7    11 1   
    16     8     9 1   
    17     9    28 1   
    18     9    29 1   
    19     9    30 1   
    20    10    12 1   
    21    10    13 1   
    22    10    31 1   
    23    10    32 1   
    24    11    33 1   
    25    13    14 ar  
    26    13    17 ar  
    27    14    18 1   
    28    15    16 ar  
    29    15    34 1   
    30    16    17 ar  
    31    16    35 1   
    32    17    36 1   
    33    18    19 1   
    34    18    24 2   
    35    19    20 1   
    36    20    21 1   
    37    20    22 1   
    38    20    37 1   
    39    21    38 1   
    40    21    39 1   
    41    21    40 1   
    42    22    41 1   
    43    22    42 1   
    44    22    43 1   
    45    23    24 1   
    46    23    44 1   
    47    24    45 1   
@<TRIPOS>SUBSTRUCTURE
     1 5L7         1 TEMP              0 ****  ****    0 ROOT
