@<TRIPOS>MOLECULE
5LA
   15    16     1     0     0
SMALL
abcg2


@<TRIPOS>ATOM
      1 CL1         -4.0270     0.2110    -0.0170 cl         1 5LA      -0.203000
      2 C02         -2.3150     0.1750    -0.0190 cc         1 5LA      -0.043000
      3 C03         -1.4770     1.2380    -0.0030 cd         1 5LA      -0.034000
      4 C04         -0.1120     0.8130    -0.0120 cd         1 5LA      -0.153000
      5 C05          1.2180     1.3140    -0.0040 cd         1 5LA      -0.149000
      6 C06          2.0570     0.2240    -0.0220 cc         1 5LA      -0.178600
      7 C07          3.5540     0.1400    -0.0220 c          1 5LA       0.732600
      8 O08          4.0350    -1.0110    -0.0410 o          1 5LA      -0.714500
      9 O09          4.1650     1.2230    -0.0040 o          1 5LA      -0.714500
     10 N10          1.2950    -0.9220    -0.0400 na         1 5LA      -0.060000
     11 C11         -0.0040    -0.5710    -0.0340 cc         1 5LA      -0.235000
     12 S12         -1.5200    -1.3850    -0.0460 ss         1 5LA       0.119000
     13 H1          -1.8160     2.2630     0.0150 ha         1 5LA       0.128000
     14 H2           1.5280     2.3460     0.0120 ha         1 5LA       0.138000
     15 H4           1.6820    -1.8520    -0.0550 hn         1 5LA       0.368000
@<TRIPOS>BOND
     1     1     2 1   
     2     2     3 2   
     3     2    12 1   
     4     3     4 1   
     5     3    13 1   
     6     4     5 1   
     7     4    11 2   
     8     5     6 2   
     9     5    14 1   
    10     6     7 1   
    11     6    10 1   
    12     7     8 1   
    13     7     9 1   
    14    10    11 1   
    15    10    15 1   
    16    11    12 1   
@<TRIPOS>SUBSTRUCTURE
     1 5LA         1 TEMP              0 ****  ****    0 ROOT
