@<TRIPOS>MOLECULE
5LA
   15    16     1     0     0
SMALL
No Charge or Current Charge


@<TRIPOS>ATOM
      1 Cl1         -4.0690     0.3910    -0.0160 cl         1 5LA      -0.203000
      2 C02         -2.3430     0.1930    -0.0200 cc         1 5LA      -0.043000
      3 C03         -1.4190     1.2320    -0.0030 cd         1 5LA      -0.034000
      4 C04         -0.1020     0.7120    -0.0120 cd         1 5LA      -0.153000
      5 C05          1.2040     1.2300    -0.0040 cd         1 5LA      -0.149000
      6 C06          2.0770     0.1410    -0.0220 cc         1 5LA      -0.178600
      7 C07          3.5600     0.2410    -0.0210 c          1 5LA       0.732600
      8 O08          4.2020    -0.7990    -0.0390 o          1 5LA      -0.714500
      9 O09          4.0840     1.3460    -0.0040 o          1 5LA      -0.714500
     10 N10          1.2740    -1.0260    -0.0410 na         1 5LA      -0.060000
     11 C11         -0.0460    -0.6070    -0.0340 cc         1 5LA      -0.235000
     12 S12         -1.5810    -1.4290    -0.0460 ss         1 5LA       0.119000
     13 H1          -1.6740     2.2860     0.0140 ha         1 5LA       0.128000
     14 H2           1.4830     2.2800     0.0130 ha         1 5LA       0.138000
     15 H4           1.6130    -1.9840    -0.0570 hn         1 5LA       0.368000
@<TRIPOS>BOND
     1     1     2 1   
     2     2     3 2   
     3     2    12 1   
     4     3     4 1   
     5     3    13 1   
     6     4     5 1   
     7     4    11 2   
     8     5     6 2   
     9     5    14 1   
    10     6     7 1   
    11     6    10 1   
    12     7     8 1   
    13     7     9 1   
    14    10    11 1   
    15    10    15 1   
    16    11    12 1   
@<TRIPOS>SUBSTRUCTURE
     1 5LA         1 TEMP              0 ****  ****    0 ROOT
