@<TRIPOS>MOLECULE
5LB
   26    26     1     0     0
SMALL
No Charge or Current Charge


@<TRIPOS>ATOM
      1 N15          5.7860    -0.4490    -0.5080 n8         1 5LB      -1.004200
      2 C16          4.4130     0.1130    -0.5730 c3         1 5LB       0.127800
      3 C17          3.4700    -0.4820     0.4980 c3         1 5LB       0.084600
      4 N26          2.1050     0.0620     0.4200 na         1 5LB       0.103800
      5 C02         -3.8750     0.1570    -0.1390 c          1 5LB       0.694000
      6 C22         -2.4060    -0.2250     0.3200 c3         1 5LB       0.010500
      7 C24          0.0430     0.4520    -0.0430 cc         1 5LB       0.242300
      8 C25          1.0590    -0.4000    -0.3450 cd         1 5LB      -0.202000
      9 N27          1.7190     1.1630     1.1430 nd         1 5LB      -0.252800
     10 N28          0.4640     1.3960     0.8530 nc         1 5LB      -0.376000
     11 N29         -2.1150    -1.7010     0.4420 n8         1 5LB      -1.009200
     12 H6           6.3690     0.0020    -1.2250 hn         1 5LB       0.393500
     13 H7           4.4680     1.2040    -0.4450 h1         1 5LB       0.045700
     14 H8           3.9970    -0.0910    -1.5700 h1         1 5LB       0.045700
     15 H9           3.4150    -1.5700     0.3710 h1         1 5LB       0.066700
     16 H10          3.8720    -0.2780     1.4970 h1         1 5LB       0.066700
     17 H26         -2.2830     0.2050     1.3240 h1         1 5LB       0.043700
     18 H27         -1.3700    -0.0150    -1.5840 hc         1 5LB       0.062200
     19 H28         -1.6650     1.5000    -0.7590 hc         1 5LB       0.062200
     20 H29          1.1120    -1.2540    -1.0070 h4         1 5LB       0.181000
     21 H30         -2.7740    -2.1180     1.1120 hn         1 5LB       0.383000
     22 H2           6.2300    -0.1630     0.3740 hn         1 5LB       0.393500
     23 H1          -2.3700    -2.1550    -0.4440 hn         1 5LB       0.383000
     24 C23         -1.3590     0.4590    -0.5950 c3         1 5LB      -0.083700
     25 O01         -4.3150    -0.3490    -1.1640 o          1 5LB      -0.731000
     26 OXT         -4.5490     0.8600     0.6010 o          1 5LB      -0.731000
@<TRIPOS>BOND
     1     1     2 1   
     2     1    12 1   
     3     1    22 1   
     4     2     3 1   
     5     2    13 1   
     6     2    14 1   
     7     3     4 1   
     8     3    15 1   
     9     3    16 1   
    10     4     8 1   
    11     4     9 1   
    12     5     6 1   
    13     5    25 1   
    14     5    26 1   
    15     6    11 1   
    16     6    17 1   
    17     6    24 1   
    18     7     8 2   
    19     7    10 1   
    20     7    24 1   
    21     8    20 1   
    22     9    10 2   
    23    11    21 1   
    24    11    23 1   
    25    18    24 1   
    26    19    24 1   
@<TRIPOS>SUBSTRUCTURE
     1 5LB         1 TEMP              0 ****  ****    0 ROOT
