@<TRIPOS>MOLECULE
5LB
   26    26     1     0     0
SMALL
abcg2


@<TRIPOS>ATOM
      1 N15          5.5190    -0.7490    -0.3700 n8         1 5LB      -1.004200
      2 C16          4.2270    -0.1270    -0.5930 c3         1 5LB       0.127800
      3 C17          3.3830    -0.2740     0.6670 c3         1 5LB       0.084600
      4 N26          2.0720     0.3220     0.5120 na         1 5LB       0.103800
      5 C02         -3.7430    -0.1670     0.0250 c          1 5LB       0.694000
      6 C22         -2.2230    -0.4260     0.2070 c3         1 5LB       0.010500
      7 C24          0.0190     0.7600     0.0530 cc         1 5LB       0.242300
      8 C25          0.9400    -0.2600     0.0770 cd         1 5LB      -0.202000
      9 N27          1.8860     1.6080     0.7370 nd         1 5LB      -0.252800
     10 N28          0.6530     1.8810     0.4670 nc         1 5LB      -0.376000
     11 N29         -1.7250    -1.6590    -0.3810 n8         1 5LB      -1.009200
     12 H6           6.0230    -0.8080    -1.2440 hn         1 5LB       0.393500
     13 H7           4.2760     0.9350    -0.8680 h1         1 5LB       0.045700
     14 H8           3.7280    -0.6440    -1.4150 h1         1 5LB       0.045700
     15 H9           3.2500    -1.3260     0.9120 h1         1 5LB       0.066700
     16 H10          3.8680     0.2100     1.5150 h1         1 5LB       0.066700
     17 H26         -2.0400    -0.4830     1.2870 h1         1 5LB       0.043700
     18 H27         -1.5190     0.7900    -1.4210 hc         1 5LB       0.062200
     19 H28         -1.8670     1.6890     0.0390 hc         1 5LB       0.062200
     20 H29          0.8610    -1.3050    -0.1600 h4         1 5LB       0.181000
     21 H30         -2.2290    -2.4370     0.0250 hn         1 5LB       0.383000
     22 H2           6.0810    -0.1630     0.2350 hn         1 5LB       0.393500
     23 H1          -1.9910    -1.6730    -1.3600 hn         1 5LB       0.383000
     24 C23         -1.4230     0.7650    -0.3280 c3         1 5LB      -0.083700
     25 O01         -4.4010    -1.0150    -0.6080 o          1 5LB      -0.731000
     26 OXT         -4.1850     0.8790     0.5440 o          1 5LB      -0.731000
@<TRIPOS>BOND
     1     1     2 1   
     2     1    12 1   
     3     1    22 1   
     4     2     3 1   
     5     2    13 1   
     6     2    14 1   
     7     3     4 1   
     8     3    15 1   
     9     3    16 1   
    10     4     8 1   
    11     4     9 1   
    12     5     6 1   
    13     5    25 1   
    14     5    26 1   
    15     6    11 1   
    16     6    17 1   
    17     6    24 1   
    18     7     8 2   
    19     7    10 1   
    20     7    24 1   
    21     8    20 1   
    22     9    10 2   
    23    11    21 1   
    24    11    23 1   
    25    18    24 1   
    26    19    24 1   
@<TRIPOS>SUBSTRUCTURE
     1 5LB         1 TEMP              0 ****  ****    0 ROOT
