@<TRIPOS>MOLECULE
5LC
   49    50     1     0     0
SMALL
No Charge or Current Charge


@<TRIPOS>ATOM
      1 C1          -7.9100     2.1490     1.1430 ca         1 5LC      -0.094500
      2 C2          -8.2920     0.8870     0.6700 ca         1 5LC       0.095100
      3 C3          -7.3180    -0.0260     0.2110 ca         1 5LC       0.136100
      4 C4          -5.9430     0.3150     0.2200 ca         1 5LC      -0.233600
      5 C5          -5.5760     1.5990     0.7030 ca         1 5LC      -0.083500
      6 C6          -6.5520     2.5030     1.1590 ca         1 5LC      -0.126500
      7 C7          -4.9060    -0.6720    -0.2750 c          1 5LC       0.626700
      8 N8          -3.5920    -0.2720    -0.2370 ns         1 5LC      -0.475900
      9 O9          -5.2210    -1.7810    -0.6930 o          1 5LC      -0.655100
     10 C10         -2.4670    -1.0970    -0.6760 c3         1 5LC       0.100000
     11 C11         -1.1250    -0.3570    -0.5170 c3         1 5LC      -0.097400
     12 C12          0.0840    -1.2020    -0.9730 c3         1 5LC      -0.071400
     13 N14          3.9030    -0.5850    -1.1320 ns         1 5LC      -0.475900
     14 C15          4.5890    -0.4190     0.0490 c          1 5LC       0.626700
     15 C16          5.8660     0.3960    -0.0050 ca         1 5LC      -0.233600
     16 O17          4.1860    -0.9110     1.0970 o          1 5LC      -0.655100
     17 C18          6.6290     0.6070     1.1700 ca         1 5LC       0.136100
     18 C19          7.8200     1.3650     1.1310 ca         1 5LC       0.095100
     19 C20          8.2640     1.9210    -0.0760 ca         1 5LC      -0.094500
     20 C21          7.5190     1.7220    -1.2480 ca         1 5LC      -0.126500
     21 C22          6.3330     0.9680    -1.2170 ca         1 5LC      -0.083500
     22 O23          6.2200     0.0770     2.3620 oh         1 5LC      -0.583100
     23 O24          8.5380     1.5540     2.2780 oh         1 5LC      -0.533600
     24 C23          1.4310    -0.4630    -0.8150 c3         1 5LC      -0.097400
     25 O25         -7.7210    -1.2510    -0.2450 oh         1 5LC      -0.583100
     26 C13          2.6370    -1.3090    -1.2710 c3         1 5LC       0.100000
     27 O26         -9.6130     0.5340     0.6510 oh         1 5LC      -0.533600
     28 H1          -8.6620     2.8500     1.4970 ha         1 5LC       0.132500
     29 H6          -6.2530     3.4820     1.5260 ha         1 5LC       0.120000
     30 H26         -9.6450    -0.3800     0.2860 ho         1 5LC       0.487000
     31 H25         -6.8840    -1.7230    -0.5140 ho         1 5LC       0.535500
     32 H5          -4.5370     1.9160     0.7340 ha         1 5LC       0.104000
     33 H8          -3.4050     0.6550     0.1190 hn         1 5LC       0.321500
     34 H101        -2.4510    -2.0210    -0.0810 h1         1 5LC       0.059700
     35 H102        -2.6160    -1.3690    -1.7300 h1         1 5LC       0.059700
     36 H111        -1.1560     0.5720    -1.1000 hc         1 5LC       0.047950
     37 H112        -0.9930    -0.0740     0.5350 hc         1 5LC       0.047950
     38 H121         0.1140    -2.1320    -0.3900 hc         1 5LC       0.046200
     39 H122        -0.0500    -1.4870    -2.0240 hc         1 5LC       0.046200
     40 H231         1.4040     0.4660    -1.3980 hc         1 5LC       0.047950
     41 H232         1.5650    -0.1780     0.2360 hc         1 5LC       0.047950
     42 H14          4.3030    -0.1520    -1.9540 hn         1 5LC       0.321500
     43 H131         2.5100    -1.5890    -2.3250 h1         1 5LC       0.059700
     44 H132         2.6860    -2.2340    -0.6800 h1         1 5LC       0.059700
     45 H22          5.7890     0.8410    -2.1500 ha         1 5LC       0.104000
     46 H20          9.1820     2.5050    -0.1030 ha         1 5LC       0.132500
     47 H24          8.0470     1.0820     2.9890 ho         1 5LC       0.487000
     48 H21          7.8620     2.1530    -2.1860 ha         1 5LC       0.120000
     49 H23          5.3720    -0.4090     2.1590 ho         1 5LC       0.535500
@<TRIPOS>BOND
     1     1     2 ar  
     2     1     6 ar  
     3     1    28 1   
     4     2     3 ar  
     5     2    27 1   
     6     3     4 ar  
     7     3    25 1   
     8     4     5 ar  
     9     4     7 1   
    10     5     6 ar  
    11     5    32 1   
    12     6    29 1   
    13     7     8 1   
    14     7     9 2   
    15     8    10 1   
    16     8    33 1   
    17    10    11 1   
    18    10    34 1   
    19    10    35 1   
    20    11    12 1   
    21    11    36 1   
    22    11    37 1   
    23    12    24 1   
    24    12    38 1   
    25    12    39 1   
    26    13    14 1   
    27    13    26 1   
    28    13    42 1   
    29    14    15 1   
    30    14    16 2   
    31    15    17 ar  
    32    15    21 ar  
    33    17    18 ar  
    34    17    22 1   
    35    18    19 ar  
    36    18    23 1   
    37    19    20 ar  
    38    19    46 1   
    39    20    21 ar  
    40    20    48 1   
    41    21    45 1   
    42    22    49 1   
    43    23    47 1   
    44    24    26 1   
    45    24    40 1   
    46    24    41 1   
    47    25    31 1   
    48    26    43 1   
    49    26    44 1   
    50    27    30 1   
@<TRIPOS>SUBSTRUCTURE
     1 5LC         1 TEMP              0 ****  ****    0 ROOT
