@<TRIPOS>MOLECULE
5LC
   49    50     1     0     0
SMALL
abcg2


@<TRIPOS>ATOM
      1 C1          -8.0790     1.9810     0.9310 ca         1 5LC      -0.094500
      2 C2          -8.3180     0.7750     0.3040 ca         1 5LC       0.095100
      3 C3          -7.2380    -0.0440    -0.0720 ca         1 5LC       0.136100
      4 C4          -5.9240     0.3660     0.1860 ca         1 5LC      -0.233600
      5 C5          -5.7080     1.5980     0.8210 ca         1 5LC      -0.083500
      6 C6          -6.7720     2.3910     1.1900 ca         1 5LC      -0.126500
      7 C7          -4.8290    -0.5430    -0.2350 c          1 5LC       0.626700
      8 N8          -3.5680    -0.1850    -0.0110 ns         1 5LC      -0.475900
      9 O9          -5.0930    -1.6230    -0.7930 o          1 5LC      -0.655100
     10 C10         -2.4370    -1.0230    -0.3650 c3         1 5LC       0.100000
     11 C11         -1.1410    -0.2320    -0.2940 c3         1 5LC      -0.097400
     12 C12          0.0620    -1.1020    -0.6300 c3         1 5LC      -0.071400
     13 N14          3.8140    -0.5030    -1.0080 ns         1 5LC      -0.475900
     14 C15          4.6400    -0.4020     0.0310 c          1 5LC       0.626700
     15 C16          5.8830     0.3960    -0.1220 ca         1 5LC      -0.233600
     16 O17          4.3970    -0.9740     1.1090 o          1 5LC      -0.655100
     17 C18          6.7890     0.3910     0.9460 ca         1 5LC       0.136100
     18 C19          7.9870     1.1230     0.8560 ca         1 5LC       0.095100
     19 C20          8.2620     1.8530    -0.2820 ca         1 5LC      -0.094500
     20 C21          7.3580     1.8670    -1.3430 ca         1 5LC      -0.126500
     21 C22          6.1850     1.1490    -1.2660 ca         1 5LC      -0.083500
     22 O23          6.5920    -0.2840     2.0830 oh         1 5LC      -0.583100
     23 O24          8.8710     1.1170     1.8740 oh         1 5LC      -0.533600
     24 C23          1.3750    -0.3310    -0.5950 c3         1 5LC      -0.097400
     25 O25         -7.5490    -1.1960    -0.6750 oh         1 5LC      -0.583100
     26 C13          2.5550    -1.2190    -0.9730 c3         1 5LC       0.100000
     27 O26         -9.5860     0.3920     0.0560 oh         1 5LC      -0.533600
     28 H1          -8.9170     2.6050     1.2170 ha         1 5LC       0.132500
     29 H6          -6.5960     3.3380     1.6820 ha         1 5LC       0.120000
     30 H26         -9.5940    -0.4570    -0.4030 ho         1 5LC       0.487000
     31 H25         -6.6790    -1.6430    -0.8700 ho         1 5LC       0.535500
     32 H5          -4.7080     1.9530     1.0320 ha         1 5LC       0.104000
     33 H8          -3.3690     0.6620     0.4950 hn         1 5LC       0.321500
     34 H101        -2.3870    -1.8860     0.3070 h1         1 5LC       0.059700
     35 H102        -2.5790    -1.4110    -1.3750 h1         1 5LC       0.059700
     36 H111        -1.1930     0.6120    -0.9890 hc         1 5LC       0.047950
     37 H112        -1.0190     0.1900     0.7090 hc         1 5LC       0.047950
     38 H121         0.1120    -1.9410     0.0720 hc         1 5LC       0.046200
     39 H122        -0.0740    -1.5410    -1.6240 hc         1 5LC       0.046200
     40 H231         1.3260     0.5150    -1.2870 hc         1 5LC       0.047950
     41 H232         1.5380     0.0860     0.4030 hc         1 5LC       0.047950
     42 H14          4.0310    -0.0200    -1.8630 hn         1 5LC       0.321500
     43 H131         2.3970    -1.6430    -1.9660 h1         1 5LC       0.059700
     44 H132         2.6400    -2.0540    -0.2790 h1         1 5LC       0.059700
     45 H22          5.5050     1.1910    -2.1060 ha         1 5LC       0.104000
     46 H20          9.1850     2.4170    -0.3390 ha         1 5LC       0.132500
     47 H24          8.5370     0.5770     2.6010 ho         1 5LC       0.487000
     48 H21          7.5800     2.4490    -2.2270 ha         1 5LC       0.120000
     49 H23          5.6960    -0.7110     1.9940 ho         1 5LC       0.535500
@<TRIPOS>BOND
     1     1     2 ar  
     2     1     6 ar  
     3     1    28 1   
     4     2     3 ar  
     5     2    27 1   
     6     3     4 ar  
     7     3    25 1   
     8     4     5 ar  
     9     4     7 1   
    10     5     6 ar  
    11     5    32 1   
    12     6    29 1   
    13     7     8 1   
    14     7     9 2   
    15     8    10 1   
    16     8    33 1   
    17    10    11 1   
    18    10    34 1   
    19    10    35 1   
    20    11    12 1   
    21    11    36 1   
    22    11    37 1   
    23    12    24 1   
    24    12    38 1   
    25    12    39 1   
    26    13    14 1   
    27    13    26 1   
    28    13    42 1   
    29    14    15 1   
    30    14    16 2   
    31    15    17 ar  
    32    15    21 ar  
    33    17    18 ar  
    34    17    22 1   
    35    18    19 ar  
    36    18    23 1   
    37    19    20 ar  
    38    19    46 1   
    39    20    21 ar  
    40    20    48 1   
    41    21    45 1   
    42    22    49 1   
    43    23    47 1   
    44    24    26 1   
    45    24    40 1   
    46    24    41 1   
    47    25    31 1   
    48    26    43 1   
    49    26    44 1   
    50    27    30 1   
@<TRIPOS>SUBSTRUCTURE
     1 5LC         1 TEMP              0 ****  ****    0 ROOT
