@<TRIPOS>MOLECULE
5LD
   21    21     1     0     0
SMALL
bcc


@<TRIPOS>ATOM
      1 O10          2.6740     0.7680     1.3840 o          1 5LD      -0.901833
      2 P9           2.6740     0.0590     0.0300 p5         1 5LD       1.151700
      3 O11          3.8960     0.3300    -0.8420 o          1 5LD      -0.901833
      4 O12          2.3340    -1.4600     0.1490 o          1 5LD      -0.901833
      5 C8           1.1870     0.7020    -0.8890 c3         1 5LD      -0.283600
      6 C7          -0.1110     0.2250    -0.2400 c3         1 5LD       0.199100
      7 O13         -0.1690    -1.1720    -0.1520 oh         1 5LD      -0.726800
      8 C6          -1.3170     0.7250    -1.0260 c3         1 5LD       0.028300
      9 N2          -2.5770     0.3530    -0.4160 na         1 5LD       0.028600
     10 N1          -3.2200    -0.7720    -0.7330 nc         1 5LD      -0.507800
     11 C5          -4.2500    -0.7660     0.0800 cd         1 5LD       0.464900
     12 N4          -4.3030     0.3000     0.9060 nd         1 5LD      -0.756000
     13 C3          -3.2300     0.9810     0.5640 cc         1 5LD       0.384400
     14 H3           1.2060     1.7950    -0.9220 hc         1 5LD       0.013700
     15 H4           1.2180     0.3580    -1.9310 hc         1 5LD       0.013700
     16 H5          -0.1680     0.6870     0.7610 h1         1 5LD       0.015700
     17 H6           0.7930    -1.4500    -0.0000 ho         1 5LD       0.506000
     18 H7          -1.2880     1.8130    -1.0910 h1         1 5LD       0.044700
     19 H8          -1.3120     0.3280    -2.0420 h1         1 5LD       0.044700
     20 H9          -4.9890    -1.5530     0.0740 h5         1 5LD       0.031100
     21 H10         -2.9010     1.9180     0.9870 h5         1 5LD       0.053100
@<TRIPOS>BOND
     1     1     2 1   
     2     2     3 1   
     3     2     4 1   
     4     2     5 1   
     5     5     6 1   
     6     5    14 1   
     7     5    15 1   
     8     6     7 1   
     9     6     8 1   
    10     6    16 1   
    11     7    17 1   
    12     8     9 1   
    13     8    18 1   
    14     8    19 1   
    15     9    10 1   
    16     9    13 1   
    17    10    11 2   
    18    11    12 1   
    19    11    20 1   
    20    12    13 2   
    21    13    21 1   
@<TRIPOS>SUBSTRUCTURE
     1 5LD         1 TEMP              0 ****  ****    0 ROOT
