@<TRIPOS>MOLECULE
5LD
   21    21     1     0     0
SMALL
No Charge or Current Charge


@<TRIPOS>ATOM
      1 O10          2.6550     1.7290     0.9420 o          1 5LD      -0.901833
      2 P9           2.6730     0.5310     0.0580 p5         1 5LD       1.309500
      3 O11          3.8900     0.5140    -0.8010 o          1 5LD      -0.901833
      4 O12          2.5490    -0.7280     0.8490 o          1 5LD      -0.901833
      5 C8           1.1970     0.5730    -1.0180 c3         1 5LD      -0.441400
      6 C7          -0.0870     0.2380    -0.2550 c3         1 5LD       0.222300
      7 O13          0.0690    -1.0850     0.2470 oh         1 5LD      -0.789000
      8 C6          -1.3570     0.3440    -1.1440 c3         1 5LD       0.057600
      9 N2          -2.6440     0.1440    -0.4460 na         1 5LD      -0.000700
     10 N1          -3.8210     0.2270    -1.1230 nc         1 5LD      -0.507800
     11 C5          -4.7190     0.0040    -0.1740 cd         1 5LD       0.464900
     12 N4          -4.1730    -0.2130     1.0800 nd         1 5LD      -0.756000
     13 C3          -2.8670    -0.1240     0.8860 cc         1 5LD       0.384400
     14 H3           1.1240     1.5770    -1.4490 hc         1 5LD       0.013700
     15 H4           1.3450    -0.1310    -1.8450 hc         1 5LD       0.013700
     16 H5          -0.1870     0.9470     0.5790 h1         1 5LD       0.015700
     17 H6           1.0380    -1.0980     0.5430 ho         1 5LD       0.545000
     18 H7          -1.3780     1.3410    -1.6010 h1         1 5LD       0.044700
     19 H8          -1.2870    -0.3880    -1.9580 h1         1 5LD       0.044700
     20 H9          -5.7900    -0.0080    -0.3440 h5         1 5LD       0.031100
     21 H10         -2.0830    -0.2260     1.6270 h5         1 5LD       0.053100
@<TRIPOS>BOND
     1     1     2 1   
     2     2     3 1   
     3     2     4 1   
     4     2     5 1   
     5     5     6 1   
     6     5    14 1   
     7     5    15 1   
     8     6     7 1   
     9     6     8 1   
    10     6    16 1   
    11     7    17 1   
    12     8     9 1   
    13     8    18 1   
    14     8    19 1   
    15     9    10 1   
    16     9    13 1   
    17    10    11 2   
    18    11    12 1   
    19    11    20 1   
    20    12    13 2   
    21    13    21 1   
@<TRIPOS>SUBSTRUCTURE
     1 5LD         1 TEMP              0 ****  ****    0 ROOT
