@<TRIPOS>MOLECULE
5LE
   29    29     1     0     0
SMALL
abcg2


@<TRIPOS>ATOM
      1 N16          6.2400     0.1280    -1.0030 n8         1 5LE      -0.994200
      2 C17          5.2750    -0.5630    -0.1610 c3         1 5LE       0.150800
      3 C18          3.9160     0.1140    -0.2480 c3         1 5LE      -0.100400
      4 C19          2.8960    -0.5740     0.6470 c3         1 5LE       0.087600
      5 N20          1.5820     0.0320     0.5450 na         1 5LE       0.106800
      6 C21          0.5120    -0.4050    -0.1410 cc         1 5LE      -0.205000
      7 C22         -0.4360     0.5740     0.0420 cd         1 5LE       0.249300
      8 C23         -1.8370     0.6660    -0.4520 c3         1 5LE      -0.085700
      9 C24         -2.7770    -0.3720     0.1660 c3         1 5LE       0.010500
     10 N25         -2.3440    -1.7080    -0.2100 n8         1 5LE      -1.004200
     11 C36         -4.2640    -0.0470    -0.1470 c          1 5LE       0.694000
     12 O37         -5.0110    -1.0110    -0.4070 o          1 5LE      -0.731500
     13 N38          0.1210     1.5280     0.8200 nd         1 5LE      -0.369000
     14 N39          1.3330     1.1940     1.1170 nc         1 5LE      -0.249800
     15 H21          6.4390     1.0370    -0.6040 hn         1 5LE       0.390000
     16 H22          5.1840    -1.5930    -0.5160 h1         1 5LE       0.024700
     17 H23          5.5790    -0.6260     0.8940 h1         1 5LE       0.024700
     18 H24          4.0070     1.1630     0.0490 hc         1 5LE       0.066200
     19 H25          3.5680     0.1000    -1.2840 hc         1 5LE       0.066200
     20 H26          2.7860    -1.6230     0.3750 h1         1 5LE       0.056200
     21 H27          3.2020    -0.5360     1.6930 h1         1 5LE       0.056200
     22 H28          0.5020    -1.3360    -0.6780 h4         1 5LE       0.167000
     23 H29         -2.2140     1.6630    -0.2310 hc         1 5LE       0.061200
     24 H30         -1.8590     0.5570    -1.5420 hc         1 5LE       0.061200
     25 H31         -2.6740    -0.2930     1.2570 h1         1 5LE       0.047700
     26 H32         -3.0020    -2.3740     0.1760 hn         1 5LE       0.381000
     27 OXT         -4.6020     1.1520    -0.0770 o          1 5LE      -0.731500
     28 H2           7.1190    -0.3730    -0.9890 hn         1 5LE       0.390000
     29 H1          -2.4510    -1.8060    -1.2150 hn         1 5LE       0.381000
@<TRIPOS>BOND
     1     1     2 1   
     2     1    15 1   
     3     1    28 1   
     4     2     3 1   
     5     2    16 1   
     6     2    17 1   
     7     3     4 1   
     8     3    18 1   
     9     3    19 1   
    10     4     5 1   
    11     4    20 1   
    12     4    21 1   
    13     5     6 1   
    14     5    14 1   
    15     6     7 2   
    16     6    22 1   
    17     7     8 1   
    18     7    13 1   
    19     8     9 1   
    20     8    23 1   
    21     8    24 1   
    22     9    10 1   
    23     9    11 1   
    24     9    25 1   
    25    10    26 1   
    26    10    29 1   
    27    11    12 1   
    28    11    27 1   
    29    13    14 2   
@<TRIPOS>SUBSTRUCTURE
     1 5LE         1 TEMP              0 ****  ****    0 ROOT
