@<TRIPOS>MOLECULE
5LE
   29    29     1     0     0
SMALL
No Charge or Current Charge


@<TRIPOS>ATOM
      1 N16          6.2980     0.1670    -1.1150 n8         1 5LE      -0.994200
      2 C17          5.3780    -0.5070    -0.1830 c3         1 5LE       0.150800
      3 C18          3.9590     0.0830    -0.2710 c3         1 5LE      -0.100400
      4 C19          2.9690    -0.6110     0.6880 c3         1 5LE       0.087600
      5 N20          1.6080    -0.0570     0.6120 na         1 5LE       0.106800
      6 C21          0.6280    -0.3810    -0.2910 cc         1 5LE      -0.205000
      7 C22         -0.4220     0.4090     0.0820 cd         1 5LE       0.249300
      8 C23         -1.7830     0.5160    -0.5580 c3         1 5LE      -0.085700
      9 C24         -2.8900    -0.2780     0.1830 c3         1 5LE       0.010500
     10 N25         -2.6100    -1.7590     0.1140 n8         1 5LE      -1.004200
     11 C36         -4.3240     0.1800    -0.3110 c          1 5LE       0.694000
     12 O37         -4.6980    -0.1730    -1.4220 o          1 5LE      -0.731500
     13 N38         -0.0470     1.1820     1.1640 nd         1 5LE      -0.369000
     14 N39          1.1850     0.8960     1.4910 nc         1 5LE      -0.249800
     15 H21          6.4020     1.1490    -0.8320 hn         1 5LE       0.390000
     16 H22          5.3500    -1.5780    -0.4300 h1         1 5LE       0.024700
     17 H23          5.7670    -0.3950     0.8390 h1         1 5LE       0.024700
     18 H24          3.9930     1.1540    -0.0360 hc         1 5LE       0.066200
     19 H25          3.5890    -0.0120    -1.2990 hc         1 5LE       0.066200
     20 H26          2.9190    -1.6810     0.4490 h1         1 5LE       0.056200
     21 H27          3.3320    -0.5160     1.7200 h1         1 5LE       0.056200
     22 H28          0.7440    -1.1070    -1.0830 h4         1 5LE       0.167000
     23 H29         -2.0750     1.5730    -0.5900 hc         1 5LE       0.061200
     24 H30         -1.7330     0.1870    -1.6020 hc         1 5LE       0.061200
     25 H31         -2.8320     0.0060     1.2430 h1         1 5LE       0.047700
     26 H32         -3.3130    -2.2590     0.6720 hn         1 5LE       0.381000
     27 OXT         -5.0430     0.7820     0.4750 o          1 5LE      -0.731500
     28 H2           7.2420    -0.2200    -0.9920 hn         1 5LE       0.390000
     29 H1          -2.8040    -2.0800    -0.8430 hn         1 5LE       0.381000
@<TRIPOS>BOND
     1     1     2 1   
     2     1    15 1   
     3     1    28 1   
     4     2     3 1   
     5     2    16 1   
     6     2    17 1   
     7     3     4 1   
     8     3    18 1   
     9     3    19 1   
    10     4     5 1   
    11     4    20 1   
    12     4    21 1   
    13     5     6 1   
    14     5    14 1   
    15     6     7 2   
    16     6    22 1   
    17     7     8 1   
    18     7    13 1   
    19     8     9 1   
    20     8    23 1   
    21     8    24 1   
    22     9    10 1   
    23     9    11 1   
    24     9    25 1   
    25    10    26 1   
    26    10    29 1   
    27    11    12 1   
    28    11    27 1   
    29    13    14 2   
@<TRIPOS>SUBSTRUCTURE
     1 5LE         1 TEMP              0 ****  ****    0 ROOT
