@<TRIPOS>MOLECULE
5LF
   38    38     1     0     0
SMALL
No Charge or Current Charge


@<TRIPOS>ATOM
      1 N19          8.7590    -0.1030     0.6980 n8         1 5LF      -0.996200
      2 C20          7.4130    -0.7020     0.7600 c3         1 5LF       0.148800
      3 C21          6.3460     0.2360     0.1580 c3         1 5LF      -0.078400
      4 C22          4.9240    -0.3650     0.2080 c3         1 5LF      -0.074400
      5 C23          3.8510     0.5680    -0.3940 c3         1 5LF      -0.073400
      6 C24          2.4290    -0.0340    -0.3440 c3         1 5LF      -0.096400
      7 C25          1.3580     0.9000    -0.9470 c3         1 5LF       0.089600
      8 N26          0.0020     0.3290    -0.8950 na         1 5LF       0.109800
      9 C27         -0.8630     0.3360     0.1690 cc         1 5LF      -0.228000
     10 C28         -1.9650    -0.3120    -0.3120 cd         1 5LF       0.264300
     11 C29         -3.2460    -0.6380     0.4120 c3         1 5LF      -0.083700
     12 C30         -4.4300     0.2940     0.0450 c3         1 5LF       0.014500
     13 N31         -4.1460     1.7070     0.4950 n8         1 5LF      -0.998200
     14 C42         -5.7990    -0.3290     0.5420 c          1 5LF       0.692000
     15 O43         -6.0510    -0.3020     1.7400 o          1 5LF      -0.733000
     16 N44         -1.7300    -0.6990    -1.6170 nd         1 5LF      -0.362000
     17 N45         -0.5370    -0.3050    -1.9750 nc         1 5LF      -0.242800
     18 H25          8.7740     0.7430     1.2800 hn         1 5LF       0.388500
     19 H26          7.4250    -1.6520     0.2080 h1         1 5LF       0.026700
     20 H27          7.1700    -0.9130     1.8110 h1         1 5LF       0.026700
     21 H28          6.3520     1.1890     0.7020 hc         1 5LF       0.044200
     22 H29          6.6070     0.4570    -0.8840 hc         1 5LF       0.044200
     23 H30          4.9180    -1.3190    -0.3360 hc         1 5LF       0.039700
     24 H31          4.6640    -0.5890     1.2500 hc         1 5LF       0.039700
     25 H32          3.8570     1.5220     0.1490 hc         1 5LF       0.037200
     26 H33          4.1110     0.7920    -1.4370 hc         1 5LF       0.037200
     27 H34          2.4200    -0.9870    -0.8890 hc         1 5LF       0.058700
     28 H35          2.1660    -0.2570     0.6970 hc         1 5LF       0.058700
     29 H36          1.3520     1.8500    -0.3970 h1         1 5LF       0.056700
     30 H37          1.6090     1.1200    -1.9920 h1         1 5LF       0.056700
     31 H38         -0.6430     0.7770     1.1310 h4         1 5LF       0.156000
     32 H39         -3.5300    -1.6710     0.1770 hc         1 5LF       0.055200
     33 H40         -3.0820    -0.6110     1.4960 hc         1 5LF       0.055200
     34 H41         -4.4920     0.3160    -1.0520 h1         1 5LF       0.054700
     35 H42         -4.9100     2.3180     0.1810 hn         1 5LF       0.379000
     36 OXT         -6.5970    -0.7180    -0.3000 o          1 5LF      -0.733000
     37 H2           9.4260    -0.7290     1.1650 hn         1 5LF       0.388500
     38 H1          -4.2290     1.7420     1.5190 hn         1 5LF       0.379000
@<TRIPOS>BOND
     1     1     2 1   
     2     1    18 1   
     3     1    37 1   
     4     2     3 1   
     5     2    19 1   
     6     2    20 1   
     7     3     4 1   
     8     3    21 1   
     9     3    22 1   
    10     4     5 1   
    11     4    23 1   
    12     4    24 1   
    13     5     6 1   
    14     5    25 1   
    15     5    26 1   
    16     6     7 1   
    17     6    27 1   
    18     6    28 1   
    19     7     8 1   
    20     7    29 1   
    21     7    30 1   
    22     8     9 1   
    23     8    17 1   
    24     9    10 2   
    25     9    31 1   
    26    10    11 1   
    27    10    16 1   
    28    11    12 1   
    29    11    32 1   
    30    11    33 1   
    31    12    13 1   
    32    12    14 1   
    33    12    34 1   
    34    13    35 1   
    35    13    38 1   
    36    14    15 1   
    37    14    36 1   
    38    16    17 2   
@<TRIPOS>SUBSTRUCTURE
     1 5LF         1 TEMP              0 ****  ****    0 ROOT
