@<TRIPOS>MOLECULE
5LF
   38    38     1     0     0
SMALL
abcg2


@<TRIPOS>ATOM
      1 N19          8.7430    -0.0300     0.3870 n8         1 5LF      -0.996200
      2 C20          7.4630    -0.7180     0.2910 c3         1 5LF       0.148800
      3 C21          6.3140     0.2760     0.2120 c3         1 5LF      -0.078400
      4 C22          4.9510    -0.3990     0.1280 c3         1 5LF      -0.074400
      5 C23          3.8120     0.5950    -0.0610 c3         1 5LF      -0.073400
      6 C24          2.4430    -0.0710    -0.1060 c3         1 5LF      -0.096400
      7 C25          1.3540     0.9320    -0.4560 c3         1 5LF       0.089600
      8 N26          0.0300     0.3390    -0.4590 na         1 5LF       0.109800
      9 C27         -0.9570     0.4860     0.4420 cc         1 5LF      -0.228000
     10 C28         -1.9620    -0.3300    -0.0120 cd         1 5LF       0.264300
     11 C29         -3.3200    -0.5690     0.5420 c3         1 5LF      -0.083700
     12 C30         -4.4220     0.2020    -0.1990 c3         1 5LF       0.014500
     13 N31         -4.1430     1.6250    -0.1520 n8         1 5LF      -0.998200
     14 C42         -5.8060    -0.2380     0.3450 c          1 5LF       0.692000
     15 O43         -6.5200     0.6300     0.8830 o          1 5LF      -0.733000
     16 N44         -1.5210    -0.9150    -1.1470 nd         1 5LF      -0.362000
     17 N45         -0.3230    -0.5070    -1.4060 nc         1 5LF      -0.242800
     18 H25          8.8040     0.4300     1.2880 hn         1 5LF       0.388500
     19 H26          7.4680    -1.3260    -0.6180 h1         1 5LF       0.026700
     20 H27          7.2770    -1.4140     1.1230 h1         1 5LF       0.026700
     21 H28          6.3410     0.9320     1.0890 hc         1 5LF       0.044200
     22 H29          6.4620     0.9220    -0.6590 hc         1 5LF       0.044200
     23 H30          4.9470    -1.1120    -0.7030 hc         1 5LF       0.039700
     24 H31          4.7790    -0.9890     1.0350 hc         1 5LF       0.039700
     25 H32          3.8310     1.3350     0.7440 hc         1 5LF       0.037200
     26 H33          3.9760     1.1510    -0.9900 hc         1 5LF       0.037200
     27 H34          2.4440    -0.8750    -0.8470 hc         1 5LF       0.058700
     28 H35          2.2180    -0.5300     0.8610 hc         1 5LF       0.058700
     29 H36          1.3350     1.7520     0.2630 h1         1 5LF       0.056700
     30 H37          1.5320     1.3650    -1.4410 h1         1 5LF       0.056700
     31 H38         -0.8790     1.1370     1.2960 h4         1 5LF       0.156000
     32 H39         -3.5490    -1.6350     0.4980 hc         1 5LF       0.055200
     33 H40         -3.3330    -0.2880     1.6000 hc         1 5LF       0.055200
     34 H41         -4.3770    -0.1060    -1.2500 h1         1 5LF       0.054700
     35 H42         -4.8620     2.1100    -0.6760 hn         1 5LF       0.379000
     36 OXT         -6.0880    -1.4460     0.1980 o          1 5LF      -0.733000
     37 H2           9.4930    -0.7090     0.3790 hn         1 5LF       0.388500
     38 H1          -4.2720     1.9460     0.8020 hn         1 5LF       0.379000
@<TRIPOS>BOND
     1     1     2 1   
     2     1    18 1   
     3     1    37 1   
     4     2     3 1   
     5     2    19 1   
     6     2    20 1   
     7     3     4 1   
     8     3    21 1   
     9     3    22 1   
    10     4     5 1   
    11     4    23 1   
    12     4    24 1   
    13     5     6 1   
    14     5    25 1   
    15     5    26 1   
    16     6     7 1   
    17     6    27 1   
    18     6    28 1   
    19     7     8 1   
    20     7    29 1   
    21     7    30 1   
    22     8     9 1   
    23     8    17 1   
    24     9    10 2   
    25     9    31 1   
    26    10    11 1   
    27    10    16 1   
    28    11    12 1   
    29    11    32 1   
    30    11    33 1   
    31    12    13 1   
    32    12    14 1   
    33    12    34 1   
    34    13    35 1   
    35    13    38 1   
    36    14    15 1   
    37    14    36 1   
    38    16    17 2   
@<TRIPOS>SUBSTRUCTURE
     1 5LF         1 TEMP              0 ****  ****    0 ROOT
