@<TRIPOS>MOLECULE
5LG
   76    78     1     0     0
SMALL
bcc


@<TRIPOS>ATOM
      1 C30          3.0110     1.1280     0.4470 c          1 5LG       0.753100
      2 O39          3.0020     0.7470     1.6000 o          1 5LG      -0.595000
      3 O31          4.0890     1.1070    -0.3380 os         1 5LG      -0.430900
      4 C1           5.2920     0.5680     0.2270 c3         1 5LG       0.207700
      5 C2           6.3110     0.5310    -0.8710 ca         1 5LG      -0.103300
      6 C3           7.1750     1.6030    -1.0700 ca         1 5LG      -0.101500
      7 C4           8.1040     1.5770    -2.1020 ca         1 5LG      -0.133500
      8 C5           8.1730     0.4760    -2.9460 ca         1 5LG      -0.115000
      9 C6           7.3130    -0.5980    -2.7540 ca         1 5LG      -0.133500
     10 C7           6.3870    -0.5680    -1.7220 ca         1 5LG      -0.101500
     11 N15         -5.6920     1.8550    -0.9800 ns         1 5LG      -0.587900
     12 C16         -5.9590     2.1210     0.4110 c3         1 5LG       0.094000
     13 C17         -5.0950     3.2400     0.9800 c3         1 5LG       0.022300
     14 N26         -3.6850     2.9200     0.9360 na         1 5LG       0.102400
     15 C02          0.0270     0.1980    -0.1170 c          1 5LG       0.646100
     16 C22          0.6080     1.5420     0.3280 c3         1 5LG       0.053700
     17 C23         -0.2460     2.7040    -0.1550 c3         1 5LG      -0.088700
     18 C24         -1.6180     2.6560     0.4280 cc         1 5LG       0.268600
     19 C25         -2.7810     3.2430    -0.0050 cd         1 5LG      -0.228600
     20 N27         -3.1390     2.1720     1.8770 nd         1 5LG      -0.199800
     21 N28         -1.8950     2.0110     1.5810 nc         1 5LG      -0.364000
     22 N29          1.9480     1.6450    -0.2080 ns         1 5LG      -0.557900
     23 N10         -2.4540    -2.4350    -0.2330 ns         1 5LG      -0.558900
     24 C11         -3.8940    -2.5650    -0.1710 c3         1 5LG       0.108700
     25 C12         -4.5680    -1.5170    -1.0540 c3         1 5LG      -0.082400
     26 C13         -4.1990    -0.0880    -0.6600 c3         1 5LG      -0.160400
     27 C14         -4.9100     0.9110    -1.5440 c          1 5LG       0.674100
     28 O18         -4.7870     0.8530    -2.7610 o          1 5LG      -0.601100
     29 C19         -4.3300    -3.9630    -0.5860 c3         1 5LG       0.124400
     30 O20         -3.7470    -4.9020     0.2820 oh         1 5LG      -0.581800
     31 N03          0.1850    -0.8010     0.7620 ns         1 5LG      -0.546900
     32 C04         -0.1610    -2.1760     0.4720 c3         1 5LG       0.035700
     33 C09         -1.6360    -2.3930     0.8260 c          1 5LG       0.658100
     34 O21         -2.0020    -2.4730     1.9890 o          1 5LG      -0.592100
     35 C05          0.7410    -3.1330     1.2430 c3         1 5LG      -0.079400
     36 C06          2.2390    -2.9510     0.9810 c3         1 5LG      -0.065700
     37 C07          3.0200    -3.9920     1.7780 c3         1 5LG      -0.088600
     38 C08          2.5900    -3.0330    -0.5000 c3         1 5LG      -0.088600
     39 H11          5.6300     1.1950     1.0540 h1         1 5LG       0.057200
     40 H32          5.1070    -0.4350     0.6160 h1         1 5LG       0.057200
     41 H33          7.1280     2.4620    -0.4110 ha         1 5LG       0.133000
     42 H34          8.7730     2.4150    -2.2460 ha         1 5LG       0.133000
     43 H35          8.8980     0.4540    -3.7490 ha         1 5LG       0.131000
     44 H36          7.3670    -1.4600    -3.4060 ha         1 5LG       0.133000
     45 H37          5.7220    -1.4120    -1.5720 ha         1 5LG       0.133000
     46 H3          -5.8470     1.2200     1.0100 h1         1 5LG       0.069200
     47 H5          -5.2470     4.1630     0.4230 h1         1 5LG       0.076200
     48 H4          -5.3700     3.4270     2.0170 h1         1 5LG       0.076200
     49 H6           0.6750     1.5810     1.4150 h1         1 5LG       0.107700
     50 H7           0.2500     3.6330     0.1360 hc         1 5LG       0.068200
     51 H8          -0.3050     2.7050    -1.2450 hc         1 5LG       0.068200
     52 H9          -3.0170     3.8480    -0.8640 h4         1 5LG       0.190000
     53 H1          -6.1180     2.4940    -1.6360 hn         1 5LG       0.309500
     54 H10          2.0400     1.8190    -1.1980 hn         1 5LG       0.331500
     55 H23         -2.0420    -2.3320    -1.1470 hn         1 5LG       0.320500
     56 H24         -4.1930    -2.4000     0.8660 h1         1 5LG       0.091700
     57 H25         -4.3070    -1.6920    -2.1010 hc         1 5LG       0.055200
     58 H26         -5.6500    -1.6520    -0.9740 hc         1 5LG       0.055200
     59 H27         -4.3900     0.0580     0.4010 hc         1 5LG       0.079200
     60 H28         -3.1270     0.0710    -0.8030 hc         1 5LG       0.079200
     61 H29         -5.4270    -4.0050    -0.5550 h1         1 5LG       0.019700
     62 H30         -4.0320    -4.1310    -1.6300 h1         1 5LG       0.019700
     63 H31         -4.0010    -5.7800    -0.0120 ho         1 5LG       0.402000
     64 H12          0.5220    -0.5820     1.6870 hn         1 5LG       0.343500
     65 H13         -0.0180    -2.3330    -0.5990 h1         1 5LG       0.072700
     66 H14          0.5460    -3.0280     2.3140 hc         1 5LG       0.062200
     67 H15          0.4500    -4.1540     0.9740 hc         1 5LG       0.062200
     68 H16          2.5380    -1.9640     1.3460 hc         1 5LG       0.059700
     69 H17          2.7650    -5.0040     1.4570 hc         1 5LG       0.032533
     70 H18          4.0960    -3.8640     1.6430 hc         1 5LG       0.032533
     71 H19          2.8090    -3.9190     2.8460 hc         1 5LG       0.032533
     72 H20          2.1260    -2.2360    -1.0830 hc         1 5LG       0.032533
     73 H21          3.6690    -2.9490    -0.6450 hc         1 5LG       0.032533
     74 H22          2.2730    -3.9880    -0.9280 hc         1 5LG       0.032533
     75 H2          -7.0020     2.4250     0.5100 h1         1 5LG       0.069200
     76 O01         -0.4560     0.0520    -1.2300 o          1 5LG      -0.624100
@<TRIPOS>BOND
     1     1     2 2   
     2     1     3 1   
     3     1    22 1   
     4     3     4 1   
     5     4     5 1   
     6     4    39 1   
     7     4    40 1   
     8     5     6 ar  
     9     5    10 ar  
    10     6     7 ar  
    11     6    41 1   
    12     7     8 ar  
    13     7    42 1   
    14     8     9 ar  
    15     8    43 1   
    16     9    10 ar  
    17     9    44 1   
    18    10    45 1   
    19    11    12 1   
    20    11    27 1   
    21    11    53 1   
    22    12    13 1   
    23    12    46 1   
    24    12    75 1   
    25    13    14 1   
    26    13    47 1   
    27    13    48 1   
    28    14    19 1   
    29    14    20 1   
    30    15    16 1   
    31    15    31 1   
    32    15    76 2   
    33    16    17 1   
    34    16    22 1   
    35    16    49 1   
    36    17    18 1   
    37    17    50 1   
    38    17    51 1   
    39    18    19 2   
    40    18    21 1   
    41    19    52 1   
    42    20    21 2   
    43    22    54 1   
    44    23    24 1   
    45    23    33 1   
    46    23    55 1   
    47    24    25 1   
    48    24    29 1   
    49    24    56 1   
    50    25    26 1   
    51    25    57 1   
    52    25    58 1   
    53    26    27 1   
    54    26    59 1   
    55    26    60 1   
    56    27    28 2   
    57    29    30 1   
    58    29    61 1   
    59    29    62 1   
    60    30    63 1   
    61    31    32 1   
    62    31    64 1   
    63    32    33 1   
    64    32    35 1   
    65    32    65 1   
    66    33    34 2   
    67    35    36 1   
    68    35    66 1   
    69    35    67 1   
    70    36    37 1   
    71    36    38 1   
    72    36    68 1   
    73    37    69 1   
    74    37    70 1   
    75    37    71 1   
    76    38    72 1   
    77    38    73 1   
    78    38    74 1   
@<TRIPOS>SUBSTRUCTURE
     1 5LG         1 TEMP              0 ****  ****    0 ROOT
