@<TRIPOS>MOLECULE
5LG
   76    78     1     0     0
SMALL
No Charge or Current Charge


@<TRIPOS>ATOM
      1 C30          3.6700     1.7720     0.3040 c          1 5LG       0.637100
      2 O39          3.5430     2.4580     1.3060 o          1 5LG      -0.546000
      3 O31          4.7820     1.6920    -0.4730 os         1 5LG      -0.454100
      4 C1           5.9130     2.4940    -0.0960 c3         1 5LG       0.230900
      5 C2           7.0320     2.2470    -1.1000 ca         1 5LG      -0.103300
      6 C3           7.1370     3.0440    -2.2570 ca         1 5LG      -0.083500
      7 C4           8.1710     2.8170    -3.1830 ca         1 5LG      -0.115500
      8 C5           9.1040     1.7910    -2.9580 ca         1 5LG      -0.097000
      9 C6           9.0020     0.9910    -1.8070 ca         1 5LG      -0.115500
     10 C7           7.9690     1.2180    -0.8810 ca         1 5LG      -0.083500
     11 N15         -5.2260     2.1380    -0.8550 ns         1 5LG      -0.520900
     12 C16         -5.3980     2.1960     0.6080 c3         1 5LG       0.094000
     13 C17         -4.2850     2.9950     1.3240 c3         1 5LG       0.051600
     14 N26         -2.9280     2.4300     1.2180 na         1 5LG       0.123800
     15 C02          0.7930    -0.6160    -0.1330 c          1 5LG       0.579100
     16 C22          1.3640     0.7430     0.3640 c3         1 5LG       0.053700
     17 C23          0.4520     1.9430    -0.0190 c3         1 5LG      -0.088700
     18 C24         -0.8960     1.9990     0.6560 cc         1 5LG       0.203300
     19 C25         -2.0310     2.5820     0.1850 cd         1 5LG      -0.196000
     20 N27         -2.3370     1.7660     2.2630 nd         1 5LG      -0.199800
     21 N28         -1.1020     1.5070     1.9130 nc         1 5LG      -0.364000
     22 N29          2.7150     0.9390    -0.2030 ns         1 5LG      -0.490900
     23 N10         -3.2420    -2.8260    -0.1280 ns         1 5LG      -0.491900
     24 C11         -4.6900    -2.5680    -0.0990 c3         1 5LG       0.108700
     25 C12         -5.0580    -1.3810    -1.0320 c3         1 5LG      -0.082400
     26 C13         -4.1330    -0.1370    -0.9040 c3         1 5LG      -0.160400
     27 C14         -4.7280     1.0930    -1.6080 c          1 5LG       0.607100
     28 O18         -4.7330     1.1860    -2.8240 o          1 5LG      -0.601100
     29 C19         -5.5160    -3.8430    -0.4220 c3         1 5LG       0.147600
     30 O20         -5.2040    -4.9060     0.4920 oh         1 5LG      -0.644000
     31 N03         -0.1550    -1.1980     0.6810 ns         1 5LG      -0.479900
     32 C04         -0.8520    -2.4760     0.4070 c3         1 5LG       0.035700
     33 C09         -2.3450    -2.3060     0.7810 c          1 5LG       0.591100
     34 O21         -2.7090    -1.7190     1.7920 o          1 5LG      -0.592100
     35 C05         -0.2190    -3.6540     1.1970 c3         1 5LG      -0.079400
     36 C06          1.2170    -4.0690     0.7700 c3         1 5LG      -0.065700
     37 C07          1.8230    -5.0720     1.7780 c3         1 5LG      -0.088600
     38 C08          1.2680    -4.6450    -0.6650 c3         1 5LG      -0.088600
     39 H11          5.6510     3.5600    -0.0930 h1         1 5LG       0.057200
     40 H32          6.2590     2.2290     0.9120 h1         1 5LG       0.057200
     41 H33          6.4170     3.8390    -2.4400 ha         1 5LG       0.115000
     42 H34          8.2470     3.4360    -4.0740 ha         1 5LG       0.115000
     43 H35          9.9030     1.6150    -3.6750 ha         1 5LG       0.113000
     44 H36          9.7230     0.1960    -1.6330 ha         1 5LG       0.115000
     45 H37          7.8960     0.5920     0.0060 ha         1 5LG       0.115000
     46 H3          -5.4830     1.1910     1.0380 h1         1 5LG       0.069200
     47 H5          -4.2610     4.0140     0.9180 h1         1 5LG       0.076200
     48 H4          -4.5410     3.0760     2.3880 h1         1 5LG       0.076200
     49 H6           1.4540     0.6840     1.4570 h1         1 5LG       0.107700
     50 H7           0.9780     2.8750     0.2170 hc         1 5LG       0.068200
     51 H8           0.3100     1.9440    -1.1060 hc         1 5LG       0.068200
     52 H9          -2.2460     3.1020    -0.7390 h4         1 5LG       0.172000
     53 H1          -5.5780     2.9180    -1.3980 hn         1 5LG       0.309500
     54 H10          2.9750     0.4140    -1.0300 hn         1 5LG       0.331500
     55 H23         -2.8600    -3.3280    -0.9200 hn         1 5LG       0.320500
     56 H24         -4.9630    -2.2710     0.9230 h1         1 5LG       0.091700
     57 H25         -5.0420    -1.7210    -2.0750 hc         1 5LG       0.055200
     58 H26         -6.0920    -1.0840    -0.8170 hc         1 5LG       0.055200
     59 H27         -3.9500     0.0580     0.1540 hc         1 5LG       0.079200
     60 H28         -3.1770    -0.3670    -1.3890 hc         1 5LG       0.079200
     61 H29         -6.5860    -3.5990    -0.3630 h1         1 5LG       0.019700
     62 H30         -5.3030    -4.1580    -1.4520 h1         1 5LG       0.019700
     63 H31         -5.7460    -5.6810     0.2270 ho         1 5LG       0.441000
     64 H12         -0.4540    -0.6590     1.4890 hn         1 5LG       0.343500
     65 H13         -0.8110    -2.6860    -0.6690 h1         1 5LG       0.072700
     66 H14         -0.2150    -3.3880     2.2620 hc         1 5LG       0.062200
     67 H15         -0.8740    -4.5300     1.1060 hc         1 5LG       0.062200
     68 H16          1.8530    -3.1750     0.7930 hc         1 5LG       0.059700
     69 H17          1.2350    -5.9980     1.8100 hc         1 5LG       0.032533
     70 H18          2.8520    -5.3300     1.4990 hc         1 5LG       0.032533
     71 H19          1.8460    -4.6440     2.7870 hc         1 5LG       0.032533
     72 H20          0.9330    -3.9110    -1.4050 hc         1 5LG       0.032533
     73 H21          2.2930    -4.9340    -0.9280 hc         1 5LG       0.032533
     74 H22          0.6310    -5.5340    -0.7520 hc         1 5LG       0.032533
     75 H2          -6.3550     2.6980     0.8080 h1         1 5LG       0.069200
     76 O01          1.1670    -1.1490    -1.1710 o          1 5LG      -0.624100
@<TRIPOS>BOND
     1     1     2 2   
     2     1     3 1   
     3     1    22 1   
     4     3     4 1   
     5     4     5 1   
     6     4    39 1   
     7     4    40 1   
     8     5     6 ar  
     9     5    10 ar  
    10     6     7 ar  
    11     6    41 1   
    12     7     8 ar  
    13     7    42 1   
    14     8     9 ar  
    15     8    43 1   
    16     9    10 ar  
    17     9    44 1   
    18    10    45 1   
    19    11    12 1   
    20    11    27 1   
    21    11    53 1   
    22    12    13 1   
    23    12    46 1   
    24    12    75 1   
    25    13    14 1   
    26    13    47 1   
    27    13    48 1   
    28    14    19 1   
    29    14    20 1   
    30    15    16 1   
    31    15    31 1   
    32    15    76 2   
    33    16    17 1   
    34    16    22 1   
    35    16    49 1   
    36    17    18 1   
    37    17    50 1   
    38    17    51 1   
    39    18    19 2   
    40    18    21 1   
    41    19    52 1   
    42    20    21 2   
    43    22    54 1   
    44    23    24 1   
    45    23    33 1   
    46    23    55 1   
    47    24    25 1   
    48    24    29 1   
    49    24    56 1   
    50    25    26 1   
    51    25    57 1   
    52    25    58 1   
    53    26    27 1   
    54    26    59 1   
    55    26    60 1   
    56    27    28 2   
    57    29    30 1   
    58    29    61 1   
    59    29    62 1   
    60    30    63 1   
    61    31    32 1   
    62    31    64 1   
    63    32    33 1   
    64    32    35 1   
    65    32    65 1   
    66    33    34 2   
    67    35    36 1   
    68    35    66 1   
    69    35    67 1   
    70    36    37 1   
    71    36    38 1   
    72    36    68 1   
    73    37    69 1   
    74    37    70 1   
    75    37    71 1   
    76    38    72 1   
    77    38    73 1   
    78    38    74 1   
@<TRIPOS>SUBSTRUCTURE
     1 5LG         1 TEMP              0 ****  ****    0 ROOT
