@<TRIPOS>MOLECULE
5LH
   79    81     1     0     0
SMALL
abcg2


@<TRIPOS>ATOM
      1 C26         -1.8470     1.6480    -2.0430 c          1 5LH       0.647100
      2 O27         -2.1220     2.3800    -2.9690 o          1 5LH      -0.543000
      3 O35         -2.4020     0.4540    -1.8310 os         1 5LH      -0.457100
      4 C1          -3.3550    -0.0340    -2.7690 c3         1 5LH       0.229900
      5 C2          -3.5460    -1.4970    -2.4940 ca         1 5LH      -0.100300
      6 C3          -3.6890    -1.9720    -1.1910 ca         1 5LH      -0.093500
      7 C4          -3.8750    -3.3250    -0.9520 ca         1 5LH      -0.122500
      8 C5          -3.9290    -4.2240    -2.0120 ca         1 5LH      -0.107000
      9 C6          -3.7890    -3.7590    -3.3120 ca         1 5LH      -0.122500
     10 C7          -3.5940    -2.4010    -3.5500 ca         1 5LH      -0.093500
     11 N16          0.6270    -1.3790     2.7910 ns         1 5LH      -0.493900
     12 C17          0.8260    -0.0930     3.4180 c3         1 5LH       0.093000
     13 C18         -0.3480     0.3530     4.2900 c3         1 5LH      -0.121400
     14 C19         -0.3720     1.8650     4.4870 c3         1 5LH       0.086600
     15 N20         -0.7670     2.5470     3.2660 na         1 5LH       0.117800
     16 C21          0.0030     3.1100     2.3180 cc         1 5LH      -0.198000
     17 C22         -0.8810     3.4750     1.3320 cd         1 5LH       0.200300
     18 C23         -0.6490     4.0950    -0.0020 c3         1 5LH      -0.099700
     19 C24         -0.1250     3.0900    -1.0350 c3         1 5LH       0.048700
     20 N25         -0.9230     1.8920    -1.0890 ns         1 5LH      -0.511900
     21 C36          1.3520     2.7400    -0.7830 c          1 5LH       0.594100
     22 O37          2.1000     3.5240    -0.2250 o          1 5LH      -0.605100
     23 N38         -2.1160     3.1110     1.7450 nd         1 5LH      -0.355000
     24 N39         -2.0350     2.5540     2.9040 nc         1 5LH      -0.209800
     25 N11          1.7100     1.5300    -1.2410 ns         1 5LH      -0.512900
     26 C06          2.9850     0.8510    -1.0600 c3         1 5LH       0.047700
     27 C05          2.8090    -0.6040    -1.5150 c          1 5LH       0.590100
     28 O12          3.6380    -1.1650    -2.2140 o          1 5LH      -0.594100
     29 C07          3.4300     0.8570     0.4120 c3         1 5LH      -0.091400
     30 C08          4.6690     0.0210     0.7350 c3         1 5LH      -0.058700
     31 C10          5.9060     0.5140    -0.0100 c3         1 5LH      -0.089100
     32 C09          4.9060     0.0530     2.2430 c3         1 5LH      -0.089100
     33 N04          1.6990    -1.1810    -1.0290 ns         1 5LH      -0.522900
     34 C03          1.2840    -2.5560    -1.2250 c3         1 5LH       0.111700
     35 C13          1.1550    -3.2980     0.1100 c3         1 5LH      -0.074400
     36 C14         -0.0170    -2.9110     1.0280 c3         1 5LH      -0.160400
     37 C15          0.0690    -1.5070     1.5820 c          1 5LH       0.606100
     38 O40         -0.3140    -0.5300     0.9350 o          1 5LH      -0.646100
     39 C02         -0.0060    -2.5430    -2.0430 c3         1 5LH       0.141600
     40 O01         -0.4570    -3.8660    -2.2090 oh         1 5LH      -0.670000
     41 H13         -4.2970     0.5110    -2.6540 h1         1 5LH       0.060200
     42 H34         -3.0080     0.1180    -3.7930 h1         1 5LH       0.060200
     43 H35         -3.6440    -1.2860    -0.3550 ha         1 5LH       0.124500
     44 H36         -3.9790    -3.6800     0.0650 ha         1 5LH       0.117000
     45 H37         -4.0710    -5.2790    -1.8240 ha         1 5LH       0.117000
     46 H38         -3.8200    -4.4500    -4.1440 ha         1 5LH       0.117000
     47 H39         -3.4690    -2.0490    -4.5670 ha         1 5LH       0.124500
     48 H3           0.9970     0.6350     2.6270 h1         1 5LH       0.059200
     49 H4          -1.2920     0.0440     3.8380 hc         1 5LH       0.069200
     50 H5          -0.2930    -0.1230     5.2700 hc         1 5LH       0.069200
     51 H6          -1.0810     2.1430     5.2650 h1         1 5LH       0.070700
     52 H7           0.6060     2.2480     4.7780 h1         1 5LH       0.070700
     53 H8           1.0700     3.2180     2.4160 h4         1 5LH       0.175000
     54 H10         -1.5970     4.4880    -0.3710 hc         1 5LH       0.079700
     55 H9           0.0410     4.9340     0.0670 hc         1 5LH       0.079700
     56 H11         -0.1630     3.5670    -2.0190 h1         1 5LH       0.100700
     57 H1           0.8870    -2.2080     3.3010 hn         1 5LH       0.320500
     58 H12         -0.8640     1.2420    -0.3150 hn         1 5LH       0.356500
     59 H14          1.0290     1.0690    -1.8240 hn         1 5LH       0.330500
     60 H15          3.7530     1.3020    -1.6930 h1         1 5LH       0.088700
     61 H16          3.6160     1.8870     0.7220 hc         1 5LH       0.055700
     62 H17          2.5900     0.4980     1.0140 hc         1 5LH       0.055700
     63 H18          4.4880    -1.0220     0.4550 hc         1 5LH       0.052700
     64 H19          5.8100     0.3980    -1.0900 hc         1 5LH       0.034533
     65 H20          6.0880     1.5710     0.2000 hc         1 5LH       0.034533
     66 H21          6.7920    -0.0430     0.2990 hc         1 5LH       0.034533
     67 H22          4.0370    -0.3160     2.7920 hc         1 5LH       0.034533
     68 H23          5.7590    -0.5680     2.5180 hc         1 5LH       0.034533
     69 H24          5.1090     1.0700     2.5860 hc         1 5LH       0.034533
     70 H25          1.0840    -0.6300    -0.4430 hn         1 5LH       0.339500
     71 H26          2.0650    -3.0560    -1.8000 h1         1 5LH       0.090700
     72 H27          1.0480    -4.3610    -0.1080 hc         1 5LH       0.058200
     73 H28          2.0970    -3.1980     0.6550 hc         1 5LH       0.058200
     74 H29         -0.9620    -3.0030     0.4890 hc         1 5LH       0.067700
     75 H30         -0.0470    -3.6340     1.8450 hc         1 5LH       0.067700
     76 H31         -0.7500    -1.9240    -1.5300 h1         1 5LH       0.036200
     77 H32          0.2020    -2.0590    -3.0070 h1         1 5LH       0.036200
     78 H33         -1.3640    -3.8370    -2.5310 ho         1 5LH       0.454000
     79 H2           1.7370    -0.1380     4.0140 h1         1 5LH       0.059200
@<TRIPOS>BOND
     1     1     2 2   
     2     1     3 1   
     3     1    20 1   
     4     3     4 1   
     5     4     5 1   
     6     4    41 1   
     7     4    42 1   
     8     5     6 ar  
     9     5    10 ar  
    10     6     7 ar  
    11     6    43 1   
    12     7     8 ar  
    13     7    44 1   
    14     8     9 ar  
    15     8    45 1   
    16     9    10 ar  
    17     9    46 1   
    18    10    47 1   
    19    11    12 1   
    20    11    37 1   
    21    11    57 1   
    22    12    13 1   
    23    12    48 1   
    24    12    79 1   
    25    13    14 1   
    26    13    49 1   
    27    13    50 1   
    28    14    15 1   
    29    14    51 1   
    30    14    52 1   
    31    15    16 1   
    32    15    24 1   
    33    16    17 2   
    34    16    53 1   
    35    17    18 1   
    36    17    23 1   
    37    18    19 1   
    38    18    54 1   
    39    18    55 1   
    40    19    20 1   
    41    19    21 1   
    42    19    56 1   
    43    20    58 1   
    44    21    22 2   
    45    21    25 1   
    46    23    24 2   
    47    25    26 1   
    48    25    59 1   
    49    26    27 1   
    50    26    29 1   
    51    26    60 1   
    52    27    28 2   
    53    27    33 1   
    54    29    30 1   
    55    29    61 1   
    56    29    62 1   
    57    30    31 1   
    58    30    32 1   
    59    30    63 1   
    60    31    64 1   
    61    31    65 1   
    62    31    66 1   
    63    32    67 1   
    64    32    68 1   
    65    32    69 1   
    66    33    34 1   
    67    33    70 1   
    68    34    35 1   
    69    34    39 1   
    70    34    71 1   
    71    35    36 1   
    72    35    72 1   
    73    35    73 1   
    74    36    37 1   
    75    36    74 1   
    76    36    75 1   
    77    37    38 2   
    78    39    40 1   
    79    39    76 1   
    80    39    77 1   
    81    40    78 1   
@<TRIPOS>SUBSTRUCTURE
     1 5LH         1 TEMP              0 ****  ****    0 ROOT
