@<TRIPOS>MOLECULE
5LH
   79    81     1     0     0
SMALL
No Charge or Current Charge


@<TRIPOS>ATOM
      1 C26         -1.9560     1.6970    -1.9530 c          1 5LH       0.647100
      2 O27         -2.2530     2.4450    -2.8700 o          1 5LH      -0.543000
      3 O35         -2.3930     0.4220    -1.7910 os         1 5LH      -0.457100
      4 C1          -3.3660    -0.0790    -2.7210 c3         1 5LH       0.229900
      5 C2          -3.5380    -1.5780    -2.4910 ca         1 5LH      -0.100300
      6 C3          -3.7310    -2.0860    -1.1900 ca         1 5LH      -0.093500
      7 C4          -3.8760    -3.4690    -0.9820 ca         1 5LH      -0.122500
      8 C5          -3.8360    -4.3530    -2.0730 ca         1 5LH      -0.107000
      9 C6          -3.6500    -3.8540    -3.3730 ca         1 5LH      -0.122500
     10 C7          -3.5000    -2.4710    -3.5810 ca         1 5LH      -0.093500
     11 N16          0.4430    -1.3430     2.7220 ns         1 5LH      -0.493900
     12 C17          0.7890    -0.0990     3.4090 c3         1 5LH       0.093000
     13 C18         -0.3570     0.4030     4.3090 c3         1 5LH      -0.121400
     14 C19         -0.3320     1.9330     4.5340 c3         1 5LH       0.086600
     15 N20         -0.7540     2.6820     3.3370 na         1 5LH       0.117800
     16 C21          0.0270     3.1030     2.2900 cc         1 5LH      -0.198000
     17 C22         -0.8820     3.6110     1.4080 cd         1 5LH       0.200300
     18 C23         -0.6430     4.1800     0.0360 c3         1 5LH      -0.099700
     19 C24         -0.1160     3.1450    -0.9920 c3         1 5LH       0.048700
     20 N25         -0.9830     1.9360    -1.0300 ns         1 5LH      -0.511900
     21 C36          1.3870     2.7610    -0.8060 c          1 5LH       0.594100
     22 O37          2.2510     3.5660    -0.4910 o          1 5LH      -0.605100
     23 N38         -2.1450     3.5290     1.9530 nd         1 5LH      -0.355000
     24 N39         -2.0710     2.9590     3.1240 nc         1 5LH      -0.209800
     25 N11          1.6610     1.4220    -1.0040 ns         1 5LH      -0.512900
     26 C06          2.9770     0.7380    -0.8930 c3         1 5LH       0.047700
     27 C05          2.8180    -0.7500    -1.3360 c          1 5LH       0.590100
     28 O12          3.6610    -1.3580    -1.9800 o          1 5LH      -0.594100
     29 C07          3.5500     0.8330     0.5520 c3         1 5LH      -0.091400
     30 C08          4.9130     0.1280     0.7970 c3         1 5LH      -0.058700
     31 C10          6.0480     0.7050    -0.0830 c3         1 5LH      -0.089100
     32 C09          5.2960     0.1840     2.2930 c3         1 5LH      -0.089100
     33 N04          1.5930    -1.3020    -1.0230 ns         1 5LH      -0.522900
     34 C03          1.1480    -2.6700    -1.2870 c3         1 5LH       0.111700
     35 C13          0.8390    -3.3880     0.0600 c3         1 5LH      -0.074400
     36 C14         -0.3350    -2.8220     0.9220 c3         1 5LH      -0.160400
     37 C15         -0.0850    -1.4050     1.4540 c          1 5LH       0.606100
     38 O40         -0.3220    -0.4000     0.7940 o          1 5LH      -0.646100
     39 C02         -0.0380    -2.6630    -2.2900 c3         1 5LH       0.141600
     40 O01         -0.4670    -3.9970    -2.6040 oh         1 5LH      -0.670000
     41 H13         -4.3310     0.4280    -2.5850 h1         1 5LH       0.060200
     42 H34         -3.0360     0.0920    -3.7550 h1         1 5LH       0.060200
     43 H35         -3.7620    -1.4090    -0.3390 ha         1 5LH       0.124500
     44 H36         -4.0210    -3.8540     0.0250 ha         1 5LH       0.117000
     45 H37         -3.9520    -5.4230    -1.9110 ha         1 5LH       0.117000
     46 H38         -3.6250    -4.5370    -4.2190 ha         1 5LH       0.117000
     47 H39         -3.3550    -2.0960    -4.5930 ha         1 5LH       0.124500
     48 H3           1.0280     0.6560     2.6510 h1         1 5LH       0.059200
     49 H4          -1.3240     0.1330     3.8650 hc         1 5LH       0.069200
     50 H5          -0.3000    -0.1120     5.2750 hc         1 5LH       0.069200
     51 H6          -1.0140     2.1880     5.3550 h1         1 5LH       0.070700
     52 H7           0.6760     2.2560     4.8250 h1         1 5LH       0.070700
     53 H8           1.1010     2.9870     2.2420 h4         1 5LH       0.175000
     54 H10         -1.5810     4.5970    -0.3510 hc         1 5LH       0.079700
     55 H9           0.0540     5.0240     0.0990 hc         1 5LH       0.079700
     56 H11         -0.1510     3.6160    -1.9840 h1         1 5LH       0.100700
     57 H1           0.6130    -2.2240     3.1940 hn         1 5LH       0.320500
     58 H12         -0.8860     1.2210    -0.3090 hn         1 5LH       0.356500
     59 H14          0.8750     0.8860    -1.3500 hn         1 5LH       0.330500
     60 H15          3.6700     1.2160    -1.5970 h1         1 5LH       0.088700
     61 H16          3.6550     1.8860     0.8370 hc         1 5LH       0.055700
     62 H17          2.8110     0.4020     1.2360 hc         1 5LH       0.055700
     63 H18          4.8040    -0.9340     0.5420 hc         1 5LH       0.052700
     64 H19          5.8400     0.5550    -1.1480 hc         1 5LH       0.034533
     65 H20          6.1740     1.7790     0.0980 hc         1 5LH       0.034533
     66 H21          6.9990     0.2070     0.1400 hc         1 5LH       0.034533
     67 H22          4.5150    -0.2750     2.9110 hc         1 5LH       0.034533
     68 H23          6.2310    -0.3590     2.4750 hc         1 5LH       0.034533
     69 H24          5.4300     1.2210     2.6240 hc         1 5LH       0.034533
     70 H25          0.9840    -0.7290    -0.4450 hn         1 5LH       0.339500
     71 H26          1.9720    -3.2150    -1.7670 h1         1 5LH       0.090700
     72 H27          0.6280    -4.4430    -0.1540 hc         1 5LH       0.058200
     73 H28          1.7520    -3.3890     0.6690 hc         1 5LH       0.058200
     74 H29         -1.2520    -2.8210     0.3240 hc         1 5LH       0.067700
     75 H30         -0.4540    -3.5020     1.7730 hc         1 5LH       0.067700
     76 H31         -0.8670    -2.0900    -1.8560 h1         1 5LH       0.036200
     77 H32          0.2720    -2.1430    -3.2060 h1         1 5LH       0.036200
     78 H33         -1.4270    -3.9410    -2.8100 ho         1 5LH       0.454000
     79 H2           1.6940    -0.2560     4.0110 h1         1 5LH       0.059200
@<TRIPOS>BOND
     1     1     2 2   
     2     1     3 1   
     3     1    20 1   
     4     3     4 1   
     5     4     5 1   
     6     4    41 1   
     7     4    42 1   
     8     5     6 ar  
     9     5    10 ar  
    10     6     7 ar  
    11     6    43 1   
    12     7     8 ar  
    13     7    44 1   
    14     8     9 ar  
    15     8    45 1   
    16     9    10 ar  
    17     9    46 1   
    18    10    47 1   
    19    11    12 1   
    20    11    37 1   
    21    11    57 1   
    22    12    13 1   
    23    12    48 1   
    24    12    79 1   
    25    13    14 1   
    26    13    49 1   
    27    13    50 1   
    28    14    15 1   
    29    14    51 1   
    30    14    52 1   
    31    15    16 1   
    32    15    24 1   
    33    16    17 2   
    34    16    53 1   
    35    17    18 1   
    36    17    23 1   
    37    18    19 1   
    38    18    54 1   
    39    18    55 1   
    40    19    20 1   
    41    19    21 1   
    42    19    56 1   
    43    20    58 1   
    44    21    22 2   
    45    21    25 1   
    46    23    24 2   
    47    25    26 1   
    48    25    59 1   
    49    26    27 1   
    50    26    29 1   
    51    26    60 1   
    52    27    28 2   
    53    27    33 1   
    54    29    30 1   
    55    29    61 1   
    56    29    62 1   
    57    30    31 1   
    58    30    32 1   
    59    30    63 1   
    60    31    64 1   
    61    31    65 1   
    62    31    66 1   
    63    32    67 1   
    64    32    68 1   
    65    32    69 1   
    66    33    34 1   
    67    33    70 1   
    68    34    35 1   
    69    34    39 1   
    70    34    71 1   
    71    35    36 1   
    72    35    72 1   
    73    35    73 1   
    74    36    37 1   
    75    36    74 1   
    76    36    75 1   
    77    37    38 2   
    78    39    40 1   
    79    39    76 1   
    80    39    77 1   
    81    40    78 1   
@<TRIPOS>SUBSTRUCTURE
     1 5LH         1 TEMP              0 ****  ****    0 ROOT
