@<TRIPOS>MOLECULE
5LI
   27    27     1     0     0
SMALL
No Charge or Current Charge


@<TRIPOS>ATOM
      1 C1          25.9560    -6.7670     8.8670 ca         1 5LI      -0.102000
      2 C2          26.2590    -6.4070     7.5440 ca         1 5LI      -0.078000
      3 C3          25.4650    -5.8060     9.7620 ca         1 5LI      -0.081000
      4 C4          26.0720    -5.0770     7.0900 ca         1 5LI      -0.136600
      5 C5          25.2780    -4.4830     9.3360 ca         1 5LI       0.119000
      6 C6          25.5770    -4.1080     8.0060 ca         1 5LI       0.157000
      7 C7          29.4900    -2.7320     5.4350 c          1 5LI       0.582900
      8 C8          26.3920    -4.7270     5.6540 c          1 5LI       0.607700
      9 C9          27.8860    -5.3000     3.6920 c3         1 5LI       0.083000
     10 C10         28.5230    -3.9190     3.4070 c3         1 5LI       0.106000
     11 N11         27.4080    -5.4590     5.0770 ns         1 5LI      -0.502900
     12 N12         29.6460    -3.5820     4.3100 n          1 5LI      -0.293300
     13 O13         30.4230    -2.4330     6.1760 o          1 5LI      -0.618100
     14 O14         25.7670    -3.9000     5.0060 o          1 5LI      -0.582100
     15 O15         30.9490    -4.0900     3.9360 oh         1 5LI      -0.461100
     16 Cl16        24.6730    -3.3040    10.5040 cl         1 5LI      -0.168000
     17 Cl17        25.3890    -2.4060     7.5500 cl         1 5LI      -0.166000
     18 H1          26.0980    -7.7940     9.1970 ha         1 5LI       0.128000
     19 H2          26.6140    -7.1830     6.8690 ha         1 5LI       0.128000
     20 H3          25.2310    -6.0850    10.7860 ha         1 5LI       0.137000
     21 H7          28.4500    -2.3800     5.5740 h5         1 5LI       0.045200
     22 H9          27.0420    -5.4540     3.0060 h1         1 5LI       0.072200
     23 H9A         28.6270    -6.0840     3.4860 h1         1 5LI       0.072200
     24 H10         28.8880    -3.9070     2.3720 h1         1 5LI       0.075200
     25 H10A        27.7540    -3.1400     3.4830 h1         1 5LI       0.075200
     26 HN11        27.8850    -6.1230     5.6760 hn         1 5LI       0.326500
     27 HO15        31.0810    -4.9030     4.4780 ho         1 5LI       0.476000
@<TRIPOS>BOND
     1     1     2 ar  
     2     1     3 ar  
     3     1    18 1   
     4     2     4 ar  
     5     2    19 1   
     6     3     5 ar  
     7     3    20 1   
     8     4     6 ar  
     9     4     8 1   
    10     5     6 ar  
    11     5    16 1   
    12     6    17 1   
    13     7    12 1   
    14     7    13 2   
    15     7    21 1   
    16     8    11 1   
    17     8    14 2   
    18     9    10 1   
    19     9    11 1   
    20     9    22 1   
    21     9    23 1   
    22    10    12 1   
    23    10    24 1   
    24    10    25 1   
    25    11    26 1   
    26    12    15 1   
    27    15    27 1   
@<TRIPOS>SUBSTRUCTURE
     1 5LI         1 TEMP              0 ****  ****    0 ROOT
