@<TRIPOS>MOLECULE
5LI
   27    27     1     0     0
SMALL
abcg2


@<TRIPOS>ATOM
      1 C1          25.5400    -6.8540     8.8120 ca         1 5LI      -0.102000
      2 C2          25.8550    -6.6000     7.4830 ca         1 5LI      -0.078000
      3 C3          25.4210    -5.8040     9.7100 ca         1 5LI      -0.081000
      4 C4          26.0410    -5.2940     7.0390 ca         1 5LI      -0.136600
      5 C5          25.6200    -4.4980     9.2780 ca         1 5LI       0.119000
      6 C6          25.9270    -4.2370     7.9430 ca         1 5LI       0.157000
      7 C7          29.5270    -2.6290     5.3420 c          1 5LI       0.582900
      8 C8          26.3110    -5.0420     5.5800 c          1 5LI       0.607700
      9 C9          27.9540    -5.2910     3.7750 c3         1 5LI       0.083000
     10 C10         28.4250    -3.8660     3.4760 c3         1 5LI       0.106000
     11 N11         27.5150    -5.4550     5.1490 ns         1 5LI      -0.502900
     12 N12         29.5350    -3.4600     4.2990 n          1 5LI      -0.293300
     13 O13         30.5210    -2.4540     6.0540 o          1 5LI      -0.618100
     14 O14         25.4670    -4.5270     4.8510 o          1 5LI      -0.582100
     15 O15         30.7120    -4.1750     4.0720 oh         1 5LI      -0.461100
     16 CL16        25.4830    -3.2070    10.4350 cl         1 5LI      -0.168000
     17 CL17        26.2080    -2.6080     7.4040 cl         1 5LI      -0.166000
     18 H1          25.3880    -7.8700     9.1510 ha         1 5LI       0.128000
     19 H2          25.9510    -7.4160     6.7780 ha         1 5LI       0.128000
     20 H3          25.1790    -5.9860    10.7480 ha         1 5LI       0.137000
     21 H7          28.5660    -2.1240     5.4840 h5         1 5LI       0.045200
     22 H9          27.1290    -5.5250     3.1030 h1         1 5LI       0.072200
     23 H9A         28.7580    -6.0010     3.5930 h1         1 5LI       0.072200
     24 H10         28.7130    -3.7880     2.4250 h1         1 5LI       0.075200
     25 H10A        27.6220    -3.1540     3.6670 h1         1 5LI       0.075200
     26 HN11        28.1680    -5.8220     5.8230 hn         1 5LI       0.326500
     27 HO15        31.2860    -3.8680     4.8040 ho         1 5LI       0.476000
@<TRIPOS>BOND
     1     1     2 ar  
     2     1     3 ar  
     3     1    18 1   
     4     2     4 ar  
     5     2    19 1   
     6     3     5 ar  
     7     3    20 1   
     8     4     6 ar  
     9     4     8 1   
    10     5     6 ar  
    11     5    16 1   
    12     6    17 1   
    13     7    12 1   
    14     7    13 2   
    15     7    21 1   
    16     8    11 1   
    17     8    14 2   
    18     9    10 1   
    19     9    11 1   
    20     9    22 1   
    21     9    23 1   
    22    10    12 1   
    23    10    24 1   
    24    10    25 1   
    25    11    26 1   
    26    12    15 1   
    27    15    27 1   
@<TRIPOS>SUBSTRUCTURE
     1 5LI         1 TEMP              0 ****  ****    0 ROOT
