@<TRIPOS>MOLECULE
5LJ
   95    98     1     0     0
SMALL
abcg2


@<TRIPOS>ATOM
      1 C32          3.8220     1.5650     0.6770 c          1 5LJ       0.641100
      2 O41          3.6520     1.1820     1.8170 o          1 5LJ      -0.547000
      3 O33          4.9520     1.3890    -0.0110 os         1 5LJ      -0.458100
      4 C34          6.0440     0.7650     0.6700 c3         1 5LJ       0.229900
      5 C35          7.1130     0.4870    -0.3440 ca         1 5LJ      -0.100300
      6 C36          7.6250     1.5090    -1.1420 ca         1 5LJ      -0.088000
      7 C37          8.6200     1.2410    -2.0700 ca         1 5LJ      -0.114500
      8 C38          9.1210    -0.0480    -2.2070 ca         1 5LJ      -0.100000
      9 C39          8.6220    -1.0690    -1.4110 ca         1 5LJ      -0.114500
     10 C40          7.6190    -0.7990    -0.4870 ca         1 5LJ      -0.088000
     11 N19         -7.6770    -1.3670    -1.2520 ns         1 5LJ      -0.506900
     12 C20         -7.7580    -0.4010    -0.1740 c3         1 5LJ       0.109000
     13 C21         -6.7430     0.7310    -0.2840 c3         1 5LJ      -0.108400
     14 C22         -6.9490     1.7830     0.8000 c3         1 5LJ      -0.069400
     15 C23         -6.1580     3.0670     0.5740 c3         1 5LJ      -0.071400
     16 C24         -4.6460     2.9060     0.6730 c3         1 5LJ      -0.098400
     17 C25         -3.9620     4.2490     0.4590 c3         1 5LJ       0.079600
     18 N26         -2.5210     4.1880     0.6140 na         1 5LJ       0.124800
     19 C27         -1.5920     3.8980    -0.3110 cc         1 5LJ      -0.184000
     20 C28         -0.4040     3.9570     0.3720 cd         1 5LJ       0.188300
     21 C29          0.9880     3.7330    -0.1070 c3         1 5LJ      -0.084700
     22 C30          1.5390     2.3930     0.3660 c3         1 5LJ       0.049700
     23 N31          2.9110     2.2300    -0.0620 ns         1 5LJ      -0.494900
     24 C42          0.7240     1.2210    -0.1890 c          1 5LJ       0.582100
     25 O43          0.2190     1.2640    -1.3000 o          1 5LJ      -0.620100
     26 N44         -0.6880     4.2620     1.6570 nd         1 5LJ      -0.358000
     27 N45         -1.9630     4.3960     1.7920 nc         1 5LJ      -0.201800
     28 N14          0.7000     0.1390     0.6010 ns         1 5LJ      -0.474900
     29 C06          0.1110    -1.1150     0.2140 c3         1 5LJ       0.029700
     30 C05         -1.3140    -1.2330     0.7520 c          1 5LJ       0.596100
     31 O15         -1.6500    -0.6880     1.7890 o          1 5LJ      -0.585100
     32 C07          0.9440    -2.2930     0.7370 c3         1 5LJ      -0.082400
     33 C08          2.4200    -2.2500     0.3470 c6         1 5LJ      -0.062700
     34 C09          2.6390    -2.1450    -1.1630 c6         1 5LJ      -0.071900
     35 C10          4.1220    -2.1440    -1.5210 c6         1 5LJ      -0.074400
     36 C11          4.8440    -3.3570    -0.9470 c6         1 5LJ      -0.075400
     37 C12          4.6250    -3.4680     0.5580 c6         1 5LJ      -0.074400
     38 C13          3.1390    -3.4810     0.8990 c6         1 5LJ      -0.071900
     39 N04         -2.1180    -2.0030     0.0000 ns         1 5LJ      -0.497900
     40 C03         -3.4070    -2.5010     0.4320 c3         1 5LJ       0.106700
     41 C16         -4.4230    -2.3440    -0.6980 c3         1 5LJ      -0.083400
     42 C17         -5.8520    -2.6940    -0.2780 c3         1 5LJ      -0.157400
     43 C18         -6.8160    -2.3890    -1.4030 c          1 5LJ       0.603100
     44 O46         -6.7930    -3.0600    -2.4290 o          1 5LJ      -0.610100
     45 C02         -3.2800    -3.9470     0.8940 c3         1 5LJ       0.139600
     46 O01         -2.3130    -4.0110     1.9130 oh         1 5LJ      -0.651000
     47 H43          6.4120     1.4310     1.4550 h1         1 5LJ       0.058700
     48 H44          5.7220    -0.1630     1.1460 h1         1 5LJ       0.058700
     49 H45          7.2480     2.5190    -1.0400 ha         1 5LJ       0.117000
     50 H46          9.0070     2.0410    -2.6880 ha         1 5LJ       0.114500
     51 H47          9.8990    -0.2530    -2.9320 ha         1 5LJ       0.114000
     52 H48          9.0050    -2.0760    -1.5110 ha         1 5LJ       0.114500
     53 H49          7.2310    -1.6010     0.1300 ha         1 5LJ       0.117000
     54 H26         -8.7650     0.0160    -0.2060 h1         1 5LJ       0.049200
     55 H27         -7.6740    -0.9030     0.7900 h1         1 5LJ       0.049200
     56 H28         -5.7290     0.3240    -0.2340 hc         1 5LJ       0.049700
     57 H29         -6.8400     1.1950    -1.2710 hc         1 5LJ       0.049700
     58 H30         -8.0120     2.0420     0.8430 hc         1 5LJ       0.043700
     59 H31         -6.7000     1.3630     1.7790 hc         1 5LJ       0.043700
     60 H32         -6.4180     3.4780    -0.4070 hc         1 5LJ       0.040700
     61 H33         -6.4800     3.8120     1.3080 hc         1 5LJ       0.040700
     62 H34         -4.3780     2.5120     1.6580 hc         1 5LJ       0.064200
     63 H35         -4.2790     2.1910    -0.0670 hc         1 5LJ       0.064200
     64 H36         -4.1700     4.6300    -0.5410 h1         1 5LJ       0.067200
     65 H37         -4.3280     4.9870     1.1720 h1         1 5LJ       0.067200
     66 H38         -1.8310     3.6890    -1.3400 h4         1 5LJ       0.174000
     67 H39          1.0190     3.7910    -1.1960 hc         1 5LJ       0.067200
     68 H40          1.6410     4.5190     0.2770 hc         1 5LJ       0.067200
     69 H41          1.5240     2.3790     1.4570 h1         1 5LJ       0.106700
     70 H42          3.1260     2.4270    -1.0290 hn         1 5LJ       0.332500
     71 H20          1.1010     0.2040     1.5230 hn         1 5LJ       0.343500
     72 H6           0.0910    -1.1510    -0.8770 h1         1 5LJ       0.081700
     73 H7           0.8600    -2.3320     1.8290 hc         1 5LJ       0.056200
     74 H8           0.4940    -3.2190     0.3660 hc         1 5LJ       0.056200
     75 H9           2.8790    -1.3700     0.8160 hc         1 5LJ       0.058700
     76 H11          2.1420    -2.9910    -1.6550 hc         1 5LJ       0.039200
     77 H10          2.1720    -1.2380    -1.5570 hc         1 5LJ       0.039200
     78 H13          4.2460    -2.1070    -2.6060 hc         1 5LJ       0.039950
     79 H12          4.5820    -1.2300    -1.1310 hc         1 5LJ       0.039950
     80 H15          4.4700    -4.2660    -1.4330 hc         1 5LJ       0.037200
     81 H14          5.9120    -3.3010    -1.1740 hc         1 5LJ       0.037200
     82 H17          5.1110    -4.3650     0.9490 hc         1 5LJ       0.039950
     83 H16          5.0980    -2.6150     1.0600 hc         1 5LJ       0.039950
     84 H18          3.0000    -3.5380     1.9820 hc         1 5LJ       0.039200
     85 H19          2.6780    -4.3840     0.4780 hc         1 5LJ       0.039200
     86 H5          -1.7260    -2.4250    -0.8280 hn         1 5LJ       0.308500
     87 H4          -3.7220    -1.8840     1.2770 h1         1 5LJ       0.092700
     88 H21         -4.3860    -1.3060    -1.0360 hc         1 5LJ       0.059200
     89 H22         -4.1270    -2.9600    -1.5520 hc         1 5LJ       0.059200
     90 H23         -5.9380    -3.7620    -0.0690 hc         1 5LJ       0.062700
     91 H24         -6.1020    -2.1740     0.6480 hc         1 5LJ       0.062700
     92 H2          -4.2580    -4.2990     1.2440 h1         1 5LJ       0.022700
     93 H3          -3.0060    -4.5700     0.0300 h1         1 5LJ       0.022700
     94 H1          -2.2230    -4.9300     2.1810 ho         1 5LJ       0.444000
     95 H25         -8.2520    -1.1750    -2.0600 hn         1 5LJ       0.313500
@<TRIPOS>BOND
     1     1     2 2   
     2     1     3 1   
     3     1    23 1   
     4     3     4 1   
     5     4     5 1   
     6     4    47 1   
     7     4    48 1   
     8     5     6 ar  
     9     5    10 ar  
    10     6     7 ar  
    11     6    49 1   
    12     7     8 ar  
    13     7    50 1   
    14     8     9 ar  
    15     8    51 1   
    16     9    10 ar  
    17     9    52 1   
    18    10    53 1   
    19    11    12 1   
    20    11    43 1   
    21    11    95 1   
    22    12    13 1   
    23    12    54 1   
    24    12    55 1   
    25    13    14 1   
    26    13    56 1   
    27    13    57 1   
    28    14    15 1   
    29    14    58 1   
    30    14    59 1   
    31    15    16 1   
    32    15    60 1   
    33    15    61 1   
    34    16    17 1   
    35    16    62 1   
    36    16    63 1   
    37    17    18 1   
    38    17    64 1   
    39    17    65 1   
    40    18    19 1   
    41    18    27 1   
    42    19    20 2   
    43    19    66 1   
    44    20    21 1   
    45    20    26 1   
    46    21    22 1   
    47    21    67 1   
    48    21    68 1   
    49    22    23 1   
    50    22    24 1   
    51    22    69 1   
    52    23    70 1   
    53    24    25 2   
    54    24    28 1   
    55    26    27 2   
    56    28    29 1   
    57    28    71 1   
    58    29    30 1   
    59    29    32 1   
    60    29    72 1   
    61    30    31 2   
    62    30    39 1   
    63    32    33 1   
    64    32    73 1   
    65    32    74 1   
    66    33    34 1   
    67    33    38 1   
    68    33    75 1   
    69    34    35 1   
    70    34    76 1   
    71    34    77 1   
    72    35    36 1   
    73    35    78 1   
    74    35    79 1   
    75    36    37 1   
    76    36    80 1   
    77    36    81 1   
    78    37    38 1   
    79    37    82 1   
    80    37    83 1   
    81    38    84 1   
    82    38    85 1   
    83    39    40 1   
    84    39    86 1   
    85    40    41 1   
    86    40    45 1   
    87    40    87 1   
    88    41    42 1   
    89    41    88 1   
    90    41    89 1   
    91    42    43 1   
    92    42    90 1   
    93    42    91 1   
    94    43    44 2   
    95    45    46 1   
    96    45    92 1   
    97    45    93 1   
    98    46    94 1   
@<TRIPOS>SUBSTRUCTURE
     1 5LJ         1 TEMP              0 ****  ****    0 ROOT
