@<TRIPOS>MOLECULE
5LJ
   95    98     1     0     0
SMALL
No Charge or Current Charge


@<TRIPOS>ATOM
      1 C32          4.5980     2.3060    -0.1060 c          1 5LJ       0.641100
      2 O41          4.6320     2.9300     0.9420 o          1 5LJ      -0.547000
      3 O33          5.6080     2.2100    -1.0110 os         1 5LJ      -0.458100
      4 C34          6.8260     2.9130    -0.7220 c3         1 5LJ       0.229900
      5 C35          7.8070     2.6640    -1.8600 ca         1 5LJ      -0.100300
      6 C36          7.8490     3.5360    -2.9670 ca         1 5LJ      -0.088000
      7 C37          8.7560     3.3060    -4.0170 ca         1 5LJ      -0.114500
      8 C38          9.6240     2.2020    -3.9680 ca         1 5LJ      -0.100000
      9 C39          9.5850     1.3280    -2.8680 ca         1 5LJ      -0.114500
     10 C40          8.6790     1.5570    -1.8180 ca         1 5LJ      -0.088000
     11 N19         -7.5020    -0.0540    -2.3280 ns         1 5LJ      -0.506900
     12 C20         -7.7550     0.5220    -1.0020 c3         1 5LJ       0.109000
     13 C21         -6.5600     1.3450    -0.4810 c3         1 5LJ      -0.108400
     14 C22         -6.7470     1.8180     0.9790 c3         1 5LJ      -0.069400
     15 C23         -5.6850     2.8350     1.4610 c3         1 5LJ      -0.071400
     16 C24         -4.2250     2.3300     1.3810 c3         1 5LJ      -0.098400
     17 C25         -3.2130     3.3460     1.9540 c3         1 5LJ       0.079600
     18 N26         -1.8100     2.9720     1.7150 na         1 5LJ       0.124800
     19 C27         -1.0890     3.1600     0.5640 cc         1 5LJ      -0.184000
     20 C28          0.1530     2.7020     0.8920 cd         1 5LJ       0.188300
     21 C29          1.3880     2.6810     0.0290 c3         1 5LJ      -0.084700
     22 C30          2.2550     1.4000     0.1670 c3         1 5LJ       0.049700
     23 N31          3.5390     1.5660    -0.5470 ns         1 5LJ      -0.494900
     24 C42          1.5340     0.1150    -0.3440 c          1 5LJ       0.582100
     25 O43          1.8980    -0.4900    -1.3460 o          1 5LJ      -0.620100
     26 N44          0.1450     2.2500     2.1960 nd         1 5LJ      -0.358000
     27 N45         -1.0500     2.4110     2.6980 nc         1 5LJ      -0.201800
     28 N14          0.4720    -0.3220     0.4200 ns         1 5LJ      -0.474900
     29 C06         -0.2330    -1.6140     0.2390 c3         1 5LJ       0.029700
     30 C05         -1.7750    -1.4110     0.2060 c          1 5LJ       0.596100
     31 O15         -2.3260    -0.3620     0.5100 o          1 5LJ      -0.585100
     32 C07          0.1820    -2.6160     1.3550 c3         1 5LJ      -0.082400
     33 C08          1.6950    -2.9950     1.4250 c6         1 5LJ      -0.062700
     34 C09          2.1730    -3.7670     0.1590 c6         1 5LJ      -0.071900
     35 C10          3.6730    -4.1400     0.2530 c6         1 5LJ      -0.074400
     36 C11          3.9680    -4.9600     1.5320 c6         1 5LJ      -0.075400
     37 C12          3.4960    -4.2050     2.7980 c6         1 5LJ      -0.074400
     38 C13          1.9960    -3.8320     2.7010 c6         1 5LJ      -0.071900
     39 N04         -2.4890    -2.5210    -0.1950 ns         1 5LJ      -0.497900
     40 C03         -3.9530    -2.6380    -0.1950 c3         1 5LJ       0.106700
     41 C16         -4.5580    -1.9550    -1.4510 c3         1 5LJ      -0.083400
     42 C17         -6.1090    -2.0080    -1.5180 c3         1 5LJ      -0.157400
     43 C18         -6.6800    -1.1180    -2.6420 c          1 5LJ       0.603100
     44 O46         -6.4810    -1.3810    -3.8180 o          1 5LJ      -0.610100
     45 C02         -4.3810    -4.1280    -0.0480 c3         1 5LJ       0.139600
     46 O01         -3.6950    -4.7580     1.0460 oh         1 5LJ      -0.651000
     47 H43          6.6400     3.9920    -0.6260 h1         1 5LJ       0.058700
     48 H44          7.2640     2.5620     0.2230 h1         1 5LJ       0.058700
     49 H45          7.1790     4.3920    -3.0140 ha         1 5LJ       0.117000
     50 H46          8.7840     3.9820    -4.8680 ha         1 5LJ       0.114500
     51 H47         10.3250     2.0240    -4.7800 ha         1 5LJ       0.114000
     52 H48         10.2560     0.4720    -2.8300 ha         1 5LJ       0.114500
     53 H49          8.6530     0.8740    -0.9710 ha         1 5LJ       0.117000
     54 H26         -8.6310     1.1790    -1.0780 h1         1 5LJ       0.049200
     55 H27         -8.0140    -0.2740    -0.2930 h1         1 5LJ       0.049200
     56 H28         -5.6500     0.7400    -0.5430 hc         1 5LJ       0.049700
     57 H29         -6.4150     2.2130    -1.1350 hc         1 5LJ       0.049700
     58 H30         -7.7360     2.2820     1.0810 hc         1 5LJ       0.043700
     59 H31         -6.7410     0.9460     1.6440 hc         1 5LJ       0.043700
     60 H32         -5.7790     3.7540     0.8700 hc         1 5LJ       0.040700
     61 H33         -5.9120     3.1070     2.4990 hc         1 5LJ       0.040700
     62 H34         -4.1300     1.3810     1.9240 hc         1 5LJ       0.064200
     63 H35         -3.9640     2.1310     0.3350 hc         1 5LJ       0.064200
     64 H36         -3.3820     4.3250     1.4900 h1         1 5LJ       0.067200
     65 H37         -3.3750     3.4570     3.0340 h1         1 5LJ       0.067200
     66 H38         -1.4900     3.5940    -0.3410 h4         1 5LJ       0.174000
     67 H39          1.1050     2.8050    -1.0230 hc         1 5LJ       0.067200
     68 H40          1.9970     3.5550     0.2850 hc         1 5LJ       0.067200
     69 H41          2.4780     1.2330     1.2300 h1         1 5LJ       0.106700
     70 H42          3.6750     1.0740    -1.4230 hn         1 5LJ       0.332500
     71 H20          0.1930     0.2710     1.1970 hn         1 5LJ       0.343500
     72 H6           0.0330    -2.0380    -0.7370 h1         1 5LJ       0.081700
     73 H7          -0.1270    -2.1870     2.3170 hc         1 5LJ       0.056200
     74 H8          -0.4050    -3.5360     1.2430 hc         1 5LJ       0.056200
     75 H9           2.2610    -2.0560     1.4980 hc         1 5LJ       0.058700
     76 H11          1.5750    -4.6800     0.0320 hc         1 5LJ       0.039200
     77 H10          2.0130    -3.1650    -0.7440 hc         1 5LJ       0.039200
     78 H13          3.9700    -4.7150    -0.6340 hc         1 5LJ       0.039950
     79 H12          4.2820    -3.2260     0.2510 hc         1 5LJ       0.039950
     80 H15          3.4640    -5.9340     1.4720 hc         1 5LJ       0.037200
     81 H14          5.0450    -5.1690     1.6020 hc         1 5LJ       0.037200
     82 H17          3.6690    -4.8260     3.6880 hc         1 5LJ       0.039950
     83 H16          4.0970    -3.2940     2.9310 hc         1 5LJ       0.039950
     84 H18          1.7040    -3.2680     3.5970 hc         1 5LJ       0.039200
     85 H19          1.3890    -4.7480     2.6990 hc         1 5LJ       0.039200
     86 H5          -1.9540    -3.3590    -0.3900 hn         1 5LJ       0.308500
     87 H4          -4.3300    -2.1060     0.6900 h1         1 5LJ       0.092700
     88 H21         -4.2360    -0.9070    -1.4690 hc         1 5LJ       0.059200
     89 H22         -4.1430    -2.4220    -2.3530 hc         1 5LJ       0.059200
     90 H23         -6.4070    -3.0400    -1.7370 hc         1 5LJ       0.062700
     91 H24         -6.5090    -1.7350    -0.5390 hc         1 5LJ       0.062700
     92 H2          -5.4650    -4.1800     0.1130 h1         1 5LJ       0.022700
     93 H3          -4.1560    -4.6570    -0.9830 h1         1 5LJ       0.022700
     94 H1          -4.0220    -5.6840     1.0970 ho         1 5LJ       0.444000
     95 H25         -7.8800     0.4390    -3.1280 hn         1 5LJ       0.313500
@<TRIPOS>BOND
     1     1     2 2   
     2     1     3 1   
     3     1    23 1   
     4     3     4 1   
     5     4     5 1   
     6     4    47 1   
     7     4    48 1   
     8     5     6 ar  
     9     5    10 ar  
    10     6     7 ar  
    11     6    49 1   
    12     7     8 ar  
    13     7    50 1   
    14     8     9 ar  
    15     8    51 1   
    16     9    10 ar  
    17     9    52 1   
    18    10    53 1   
    19    11    12 1   
    20    11    43 1   
    21    11    95 1   
    22    12    13 1   
    23    12    54 1   
    24    12    55 1   
    25    13    14 1   
    26    13    56 1   
    27    13    57 1   
    28    14    15 1   
    29    14    58 1   
    30    14    59 1   
    31    15    16 1   
    32    15    60 1   
    33    15    61 1   
    34    16    17 1   
    35    16    62 1   
    36    16    63 1   
    37    17    18 1   
    38    17    64 1   
    39    17    65 1   
    40    18    19 1   
    41    18    27 1   
    42    19    20 2   
    43    19    66 1   
    44    20    21 1   
    45    20    26 1   
    46    21    22 1   
    47    21    67 1   
    48    21    68 1   
    49    22    23 1   
    50    22    24 1   
    51    22    69 1   
    52    23    70 1   
    53    24    25 2   
    54    24    28 1   
    55    26    27 2   
    56    28    29 1   
    57    28    71 1   
    58    29    30 1   
    59    29    32 1   
    60    29    72 1   
    61    30    31 2   
    62    30    39 1   
    63    32    33 1   
    64    32    73 1   
    65    32    74 1   
    66    33    34 1   
    67    33    38 1   
    68    33    75 1   
    69    34    35 1   
    70    34    76 1   
    71    34    77 1   
    72    35    36 1   
    73    35    78 1   
    74    35    79 1   
    75    36    37 1   
    76    36    80 1   
    77    36    81 1   
    78    37    38 1   
    79    37    82 1   
    80    37    83 1   
    81    38    84 1   
    82    38    85 1   
    83    39    40 1   
    84    39    86 1   
    85    40    41 1   
    86    40    45 1   
    87    40    87 1   
    88    41    42 1   
    89    41    88 1   
    90    41    89 1   
    91    42    43 1   
    92    42    90 1   
    93    42    91 1   
    94    43    44 2   
    95    45    46 1   
    96    45    92 1   
    97    45    93 1   
    98    46    94 1   
@<TRIPOS>SUBSTRUCTURE
     1 5LJ         1 TEMP              0 ****  ****    0 ROOT
