@<TRIPOS>MOLECULE
5LK
   56    60     1     0     0
SMALL
abcg2


@<TRIPOS>ATOM
      1 N1           1.9930     1.5500    -0.1500 na         1 5LK       0.068800
      2 N2           1.2870     1.8610    -1.2290 nc         1 5LK      -0.505800
      3 C3           0.1230     1.2630    -1.0640 cd         1 5LK       0.244900
      4 C5           0.0550     0.5570     0.1570 cd         1 5LK      -0.098000
      5 C6           1.3010     0.7860     0.7220 cc         1 5LK       0.039400
      6 N7           1.8400     0.3730     1.9220 ne         1 5LK      -0.523100
      7 C8           3.0910     0.5520     2.0880 c2         1 5LK       0.428200
      8 C10          4.0200     1.1500     1.0660 c6         1 5LK      -0.117700
      9 C11          3.2820     2.1540     0.1640 c6         1 5LK       0.327500
     10 N12          3.1930     3.4420     0.7840 n8         1 5LK      -1.015200
     11 C15          4.7130     0.0580     0.2770 ca         1 5LK      -0.130300
     12 C16          6.0570     0.2060    -0.0540 ca         1 5LK      -0.055000
     13 C18          6.7240    -0.7400    -0.8170 ca         1 5LK      -0.176000
     14 C20          6.0480    -1.8700    -1.2680 ca         1 5LK       0.149100
     15 C21          4.7040    -2.0360    -0.9400 ca         1 5LK      -0.176000
     16 C23          4.0530    -1.0820    -0.1760 ca         1 5LK      -0.055000
     17 O25          6.6380    -2.8270    -2.0090 oh         1 5LK      -0.529100
     18 C27         -1.0640    -0.2360     0.6640 ca         1 5LK       0.030000
     19 C28         -2.3510     0.0320     0.2050 ca         1 5LK      -0.143000
     20 C30         -3.4590    -0.7170     0.6210 ca         1 5LK       0.291000
     21 C31         -3.2400    -1.7600     1.5280 ca         1 5LK      -0.169000
     22 C33         -1.9570    -2.0330     1.9830 ca         1 5LK      -0.087000
     23 C35         -0.8690    -1.2870     1.5670 ca         1 5LK      -0.120000
     24 N37         -4.7220    -0.4290     0.1010 nh         1 5LK      -0.793400
     25 C38         -5.8010    -1.3520     0.3850 c6         1 5LK       0.198800
     26 C41         -6.9680    -1.0990    -0.5510 c6         1 5LK       0.157300
     27 N44         -7.4290     0.2700    -0.4510 n3         1 5LK      -0.715600
     28 C45         -6.3460     1.1740    -0.7760 c6         1 5LK       0.157300
     29 C48         -5.1700     0.9550     0.1540 c6         1 5LK       0.198800
     30 C51         -8.5930     0.5050    -1.2730 c3         1 5LK       0.153100
     31 H3          -0.6330     1.3310    -1.8310 h4         1 5LK       0.042100
     32 H8           3.5270     0.2190     3.0250 h4         1 5LK       0.037800
     33 H10          4.7880     1.7130     1.6020 hc         1 5LK       0.093700
     34 HN12         2.7320     4.1020     0.1720 hn         1 5LK       0.423000
     35 H16          6.6000     1.0780     0.2890 ha         1 5LK       0.120000
     36 H18          7.7710    -0.5950    -1.0560 ha         1 5LK       0.125000
     37 H21          4.1710    -2.9140    -1.2830 ha         1 5LK       0.125000
     38 H23          3.0110    -1.2540     0.0660 ha         1 5LK       0.120000
     39 HO25         7.5580    -2.5990    -2.1840 ho         1 5LK       0.466000
     40 H28         -2.4940     0.8360    -0.5060 ha         1 5LK       0.112000
     41 H31         -4.0610    -2.3600     1.8950 ha         1 5LK       0.111000
     42 H33         -1.8120    -2.8460     2.6820 ha         1 5LK       0.109000
     43 H35          0.1220    -1.5220     1.9290 ha         1 5LK       0.127000
     44 H38         -5.4550    -2.3750     0.2270 h1         1 5LK       0.043450
     45 H38A        -6.1460    -1.2760     1.4270 h1         1 5LK       0.043450
     46 H41         -6.6630    -1.3470    -1.5830 h1         1 5LK       0.038700
     47 H41A        -7.7830    -1.7750    -0.2840 h1         1 5LK       0.038700
     48 H45         -6.0080     1.0490    -1.8210 h1         1 5LK       0.038700
     49 H45A        -6.6920     2.2050    -0.6680 h1         1 5LK       0.038700
     50 H48         -5.4610     1.2270     1.1790 h1         1 5LK       0.043450
     51 H48A        -4.3640     1.6250    -0.1420 h1         1 5LK       0.043450
     52 H51         -9.4060    -0.1540    -0.9670 h1         1 5LK       0.031033
     53 H51A        -8.9350     1.5340    -1.1520 h1         1 5LK       0.031033
     54 H51B        -8.4100     0.3360    -2.3460 h1         1 5LK       0.031033
     55 H25          3.8170     2.2640    -0.7800 h2         1 5LK       0.107700
     56 H26          2.6610     3.4110     1.6460 hn         1 5LK       0.423000
@<TRIPOS>BOND
     1     1     2 1   
     2     1     5 1   
     3     1     9 1   
     4     2     3 2   
     5     3     4 1   
     6     3    31 1   
     7     4     5 2   
     8     4    18 1   
     9     5     6 1   
    10     6     7 2   
    11     7     8 1   
    12     7    32 1   
    13     8     9 1   
    14     8    11 1   
    15     8    33 1   
    16     9    10 1   
    17     9    55 1   
    18    10    34 1   
    19    10    56 1   
    20    11    12 ar  
    21    11    16 ar  
    22    12    13 ar  
    23    12    35 1   
    24    13    14 ar  
    25    13    36 1   
    26    14    15 ar  
    27    14    17 1   
    28    15    16 ar  
    29    15    37 1   
    30    16    38 1   
    31    17    39 1   
    32    18    19 ar  
    33    18    23 ar  
    34    19    20 ar  
    35    19    40 1   
    36    20    21 ar  
    37    20    24 1   
    38    21    22 ar  
    39    21    41 1   
    40    22    23 ar  
    41    22    42 1   
    42    23    43 1   
    43    24    25 1   
    44    24    29 1   
    45    25    26 1   
    46    25    44 1   
    47    25    45 1   
    48    26    27 1   
    49    26    46 1   
    50    26    47 1   
    51    27    28 1   
    52    27    30 1   
    53    28    29 1   
    54    28    48 1   
    55    28    49 1   
    56    29    50 1   
    57    29    51 1   
    58    30    52 1   
    59    30    53 1   
    60    30    54 1   
@<TRIPOS>SUBSTRUCTURE
     1 5LK         1 TEMP              0 ****  ****    0 ROOT
