@<TRIPOS>MOLECULE
5LK
   56    60     1     0     0
SMALL
No Charge or Current Charge


@<TRIPOS>ATOM
      1 N1           1.9480     1.7310     0.0920 na         1 5LK       0.068800
      2 N2           1.1040     2.2780    -0.8500 nc         1 5LK      -0.505800
      3 C3          -0.0520     1.7090    -0.5560 cd         1 5LK       0.244900
      4 C5           0.0020     0.8140     0.5480 cd         1 5LK      -0.098000
      5 C6           1.3150     0.8440     0.9560 cc         1 5LK       0.039400
      6 N7           1.9950     0.2000     1.9770 ne         1 5LK      -0.523100
      7 C8           3.2980     0.2700     2.0400 c2         1 5LK       0.428200
      8 C10          4.1710     0.9640     0.9920 c6         1 5LK      -0.117700
      9 C11          3.3900     2.0690     0.2130 c6         1 5LK       0.327500
     10 N12          3.6170     3.4070     0.8210 n8         1 5LK      -1.015200
     11 C15          4.8210    -0.0490     0.0320 ca         1 5LK      -0.130300
     12 C16          6.2260    -0.1630    -0.0310 ca         1 5LK      -0.055000
     13 C18          6.8250    -1.0850    -0.9070 ca         1 5LK      -0.176000
     14 C20          6.0260    -1.8990    -1.7250 ca         1 5LK       0.149100
     15 C21          4.6300    -1.7930    -1.6670 ca         1 5LK      -0.176000
     16 C23          4.0260    -0.8730    -0.7930 ca         1 5LK      -0.055000
     17 O25          6.5990    -2.7950    -2.5760 oh         1 5LK      -0.529100
     18 C27         -1.1450     0.0400     1.0950 ca         1 5LK       0.030000
     19 C28         -2.4230     0.1690     0.5040 ca         1 5LK      -0.143000
     20 C30         -3.5380    -0.5430     0.9850 ca         1 5LK       0.291000
     21 C31         -3.3720    -1.4090     2.0810 ca         1 5LK      -0.169000
     22 C33         -2.1150    -1.5540     2.6840 ca         1 5LK      -0.087000
     23 C35         -1.0120    -0.8360     2.1960 ca         1 5LK      -0.120000
     24 N37         -4.7970    -0.3820     0.3610 nh         1 5LK      -0.793400
     25 C38         -5.8300    -1.4680     0.3960 c6         1 5LK       0.198800
     26 C41         -6.8880    -1.3310    -0.7480 c6         1 5LK       0.157300
     27 N44         -7.5250     0.0200    -0.7920 n3         1 5LK      -0.715600
     28 C45         -6.4690     1.0730    -0.9020 c6         1 5LK       0.157300
     29 C48         -5.4020     0.9850     0.2390 c6         1 5LK       0.198800
     30 C51         -8.5540     0.1320    -1.8480 c3         1 5LK       0.153100
     31 H3          -0.9100     1.9690    -1.1620 h4         1 5LK       0.042100
     32 H8           3.8070    -0.2340     2.8570 h4         1 5LK       0.037800
     33 H10          4.9790     1.4560     1.5490 hc         1 5LK       0.093700
     34 HN12         3.0850     4.0850     0.2630 hn         1 5LK       0.423000
     35 H16          6.8580     0.4630     0.5960 ha         1 5LK       0.120000
     36 H18          7.9090    -1.1600    -0.9440 ha         1 5LK       0.125000
     37 H21          4.0110    -2.4250    -2.2990 ha         1 5LK       0.125000
     38 H23          2.9410    -0.8070    -0.7600 ha         1 5LK       0.120000
     39 HO25         7.5740    -2.7320    -2.4820 ho         1 5LK       0.466000
     40 H28         -2.5650     0.8190    -0.3510 ha         1 5LK       0.112000
     41 H31         -4.2150    -1.9650     2.4800 ha         1 5LK       0.111000
     42 H33         -1.9930    -2.2220     3.5340 ha         1 5LK       0.109000
     43 H35         -0.0590    -0.9760     2.6910 ha         1 5LK       0.127000
     44 H38         -5.3480    -2.4530     0.3030 h1         1 5LK       0.043450
     45 H38A        -6.3540    -1.4490     1.3630 h1         1 5LK       0.043450
     46 H41         -6.3910    -1.5430    -1.7060 h1         1 5LK       0.038700
     47 H41A        -7.6540    -2.1080    -0.6080 h1         1 5LK       0.038700
     48 H45         -5.9500     0.9840    -1.8680 h1         1 5LK       0.038700
     49 H45A        -6.9250     2.0730    -0.8760 h1         1 5LK       0.038700
     50 H48         -5.8820     1.2580     1.1900 h1         1 5LK       0.043450
     51 H48A        -4.6270     1.7400     0.0430 h1         1 5LK       0.043450
     52 H51         -9.3360    -0.6260    -1.7080 h1         1 5LK       0.031033
     53 H51A        -9.0320     1.1210    -1.8200 h1         1 5LK       0.031033
     54 H51B        -8.1120    -0.0090    -2.8430 h1         1 5LK       0.031033
     55 H25          3.7770     2.1240    -0.8180 h2         1 5LK       0.107700
     56 H26          3.1300     3.4280     1.7230 hn         1 5LK       0.423000
@<TRIPOS>BOND
     1     1     2 1   
     2     1     5 1   
     3     1     9 1   
     4     2     3 2   
     5     3     4 1   
     6     3    31 1   
     7     4     5 2   
     8     4    18 1   
     9     5     6 1   
    10     6     7 2   
    11     7     8 1   
    12     7    32 1   
    13     8     9 1   
    14     8    11 1   
    15     8    33 1   
    16     9    10 1   
    17     9    55 1   
    18    10    34 1   
    19    10    56 1   
    20    11    12 ar  
    21    11    16 ar  
    22    12    13 ar  
    23    12    35 1   
    24    13    14 ar  
    25    13    36 1   
    26    14    15 ar  
    27    14    17 1   
    28    15    16 ar  
    29    15    37 1   
    30    16    38 1   
    31    17    39 1   
    32    18    19 ar  
    33    18    23 ar  
    34    19    20 ar  
    35    19    40 1   
    36    20    21 ar  
    37    20    24 1   
    38    21    22 ar  
    39    21    41 1   
    40    22    23 ar  
    41    22    42 1   
    42    23    43 1   
    43    24    25 1   
    44    24    29 1   
    45    25    26 1   
    46    25    44 1   
    47    25    45 1   
    48    26    27 1   
    49    26    46 1   
    50    26    47 1   
    51    27    28 1   
    52    27    30 1   
    53    28    29 1   
    54    28    48 1   
    55    28    49 1   
    56    29    50 1   
    57    29    51 1   
    58    30    52 1   
    59    30    53 1   
    60    30    54 1   
@<TRIPOS>SUBSTRUCTURE
     1 5LK         1 TEMP              0 ****  ****    0 ROOT
