@<TRIPOS>MOLECULE
5LL
   25    26     1     0     0
SMALL
No Charge or Current Charge


@<TRIPOS>ATOM
      1 C4           2.6050    -1.2420     0.1610 c          1 5LL       0.598700
      2 C5           1.4640    -0.3750    -0.1960 cc         1 5LL      -0.307400
      3 C6           1.7290     1.0700    -0.3710 c          1 5LL       0.598700
      4 N1           3.0080     1.4580    -0.1430 ns         1 5LL      -0.475000
      5 N3           3.7920    -0.6090     0.3270 ns         1 5LL      -0.475000
      6 CAA         -4.8560    -0.9930    -0.1140 cc         1 5LL      -0.130000
      7 CAB         -5.7720     0.0220     0.2170 cc         1 5LL      -0.198000
      8 CAC         -5.0310     1.1420     0.4730 cd         1 5LL       0.152900
      9 OAD         -3.6840     0.8970     0.3240 os         1 5LL      -0.217000
     10 CAE         -3.6110    -0.4300    -0.0390 cd         1 5LL       0.131800
     11 CAF         -2.3180    -1.0660    -0.2900 cf         1 5LL      -0.176800
     12 CAG         -1.0800    -0.2960    -0.1700 cf         1 5LL      -0.223000
     13 CAH          0.2180    -0.9280    -0.3900 cf         1 5LL       0.013000
     14 O4           2.5290    -2.4500     0.3140 o          1 5LL      -0.524000
     15 C2           4.0690     0.7030     0.2030 c          1 5LL       0.634000
     16 O2           5.1790     1.1650     0.3820 o          1 5LL      -0.542000
     17 O6           0.8990     1.8960    -0.7100 o          1 5LL      -0.524000
     18 H2           3.1920     2.4430    -0.2550 hn         1 5LL       0.349000
     19 H3           4.5710    -1.1970     0.5790 hn         1 5LL       0.349000
     20 H5          -6.8530    -0.0750     0.2570 ha         1 5LL       0.149000
     21 H6          -5.3320     2.1420     0.7610 h4         1 5LL       0.059100
     22 H7          -2.3010    -2.1190    -0.5770 ha         1 5LL       0.188000
     23 H9          -1.1300     0.7540     0.1250 ha         1 5LL       0.229000
     24 H11          0.1920    -2.0220    -0.4060 ha         1 5LL       0.194000
     25 H4          -5.1000    -2.0190    -0.3750 ha         1 5LL       0.146000
@<TRIPOS>BOND
     1     1     2 1   
     2     1     5 1   
     3     1    14 2   
     4     2     3 1   
     5     2    13 2   
     6     3     4 1   
     7     3    17 2   
     8     4    15 1   
     9     4    18 1   
    10     5    15 1   
    11     5    19 1   
    12     6     7 1   
    13     6    10 2   
    14     6    25 1   
    15     7     8 2   
    16     7    20 1   
    17     8     9 1   
    18     8    21 1   
    19     9    10 1   
    20    10    11 1   
    21    11    12 2   
    22    11    22 1   
    23    12    13 1   
    24    12    23 1   
    25    13    24 1   
    26    15    16 2   
@<TRIPOS>SUBSTRUCTURE
     1 5LL         1 TEMP              0 ****  ****    0 ROOT
