@<TRIPOS>MOLECULE
5LL
   25    26     1     0     0
SMALL
bcc


@<TRIPOS>ATOM
      1 C4           2.5270    -1.2680    -0.0690 c          1 5LL       0.741200
      2 C5           1.4190    -0.3050    -0.0180 cc         1 5LL      -0.307400
      3 C6           1.7080     1.1260     0.0530 c          1 5LL       0.741200
      4 N1           3.0470     1.4600     0.0740 ns         1 5LL      -0.609000
      5 N3           3.7920    -0.7240    -0.0430 ns         1 5LL      -0.609000
      6 CAA         -4.7630    -1.0760    -0.0280 cc         1 5LL      -0.213300
      7 CAB         -5.7710    -0.0860     0.0270 cc         1 5LL      -0.281300
      8 CAC         -5.1170     1.1060     0.0790 cd         1 5LL       0.262600
      9 OAD         -3.7920     0.9220     0.0610 os         1 5LL      -0.305800
     10 CAE         -3.5640    -0.4120    -0.0050 cd         1 5LL       0.241500
     11 CAF         -2.2340    -0.9020    -0.0350 cf         1 5LL      -0.126800
     12 CAG         -1.1010    -0.1520    -0.0050 cf         1 5LL      -0.173000
     13 CAH          0.1520    -0.8160    -0.0400 cf         1 5LL       0.063000
     14 O4           2.3890    -2.4740    -0.1310 o          1 5LL      -0.599500
     15 C2           4.1170     0.6050     0.0280 c          1 5LL       0.843500
     16 O2           5.2630     0.9940     0.0490 o          1 5LL      -0.617500
     17 O6           0.8730     2.0080     0.0940 o          1 5LL      -0.599500
     18 H2           3.2690     2.4460     0.1240 hn         1 5LL       0.349000
     19 H3           4.5700    -1.3710    -0.0780 hn         1 5LL       0.349000
     20 H5          -6.8390    -0.2310     0.0290 ha         1 5LL       0.167000
     21 H6          -5.4650     2.1250     0.1320 h4         1 5LL       0.059100
     22 H7          -2.1540    -1.9830    -0.0860 ha         1 5LL       0.138000
     23 H9          -1.1510     0.9250     0.0450 ha         1 5LL       0.179000
     24 H11          0.0950    -1.9000    -0.0910 ha         1 5LL       0.144000
     25 H4          -4.8920    -2.1460    -0.0770 ha         1 5LL       0.164000
@<TRIPOS>BOND
     1     1     2 1   
     2     1     5 1   
     3     1    14 2   
     4     2     3 1   
     5     2    13 2   
     6     3     4 1   
     7     3    17 2   
     8     4    15 1   
     9     4    18 1   
    10     5    15 1   
    11     5    19 1   
    12     6     7 1   
    13     6    10 2   
    14     6    25 1   
    15     7     8 2   
    16     7    20 1   
    17     8     9 1   
    18     8    21 1   
    19     9    10 1   
    20    10    11 1   
    21    11    12 2   
    22    11    22 1   
    23    12    13 1   
    24    12    23 1   
    25    13    24 1   
    26    15    16 2   
@<TRIPOS>SUBSTRUCTURE
     1 5LL         1 TEMP              0 ****  ****    0 ROOT
