@<TRIPOS>MOLECULE
5LM
   25    26     1     0     0
SMALL
No Charge or Current Charge


@<TRIPOS>ATOM
      1 CAQ          4.5190    -1.2640     0.0470 cc         1 5LM      -0.092000
      2 CAP          5.6690    -0.4680    -0.1740 cc         1 5LM      -0.139000
      3 CAO          5.3880     0.8510    -0.4130 cd         1 5LM      -0.234000
      4 SAN          3.6410     1.1520    -0.3690 ss         1 5LM       0.266000
      5 CAM          3.3390    -0.5680    -0.0190 cd         1 5LM      -0.232800
      6 CAL          2.0000    -1.1310     0.1690 cf         1 5LM      -0.034200
      7 CAK          0.8120    -0.4690     0.1050 ce         1 5LM      -0.252000
      8 CAJ         -0.5030    -1.1020     0.2970 ce         1 5LM       0.022000
      9 CAE         -1.7370    -0.4870     0.1320 cd         1 5LM      -0.315400
     10 CAF         -2.9150    -1.2940    -0.2650 c          1 5LM       0.600200
     11 OAG         -2.8740    -2.4920    -0.4900 o          1 5LM      -0.526500
     12 NAA         -4.0830    -0.6180    -0.3850 ns         1 5LM      -0.475500
     13 CAB         -4.3220     0.6900    -0.1760 c          1 5LM       0.635000
     14 OAH         -5.4190     1.1930    -0.3230 o          1 5LM      -0.542000
     15 NAC         -3.2410     1.3880     0.2170 ns         1 5LM      -0.475500
     16 CAD         -1.9730     0.9510     0.4170 c          1 5LM       0.600200
     17 OAI         -1.1250     1.7290     0.8190 o          1 5LM      -0.526500
     18 H1           4.5870    -2.3300     0.2490 ha         1 5LM       0.137000
     19 H2           6.6730    -0.8830    -0.1530 ha         1 5LM       0.140000
     20 H3           6.0770     1.6630    -0.6110 h4         1 5LM       0.154000
     21 H4           1.9770    -2.2030     0.3840 ha         1 5LM       0.181000
     22 H6           0.8290     0.5970    -0.1150 ha         1 5LM       0.220000
     23 H8          -0.4950    -2.1900     0.1890 ha         1 5LM       0.194000
     24 H11         -4.8790    -1.1660    -0.6690 hn         1 5LM       0.348000
     25 H12         -3.3990     2.3660     0.3990 hn         1 5LM       0.348000
@<TRIPOS>BOND
     1     1     2 1   
     2     1     5 2   
     3     1    18 1   
     4     2     3 2   
     5     2    19 1   
     6     3     4 1   
     7     3    20 1   
     8     4     5 1   
     9     5     6 1   
    10     6     7 2   
    11     6    21 1   
    12     7     8 1   
    13     7    22 1   
    14     8     9 2   
    15     8    23 1   
    16     9    10 1   
    17     9    16 1   
    18    10    11 2   
    19    10    12 1   
    20    12    13 1   
    21    12    24 1   
    22    13    14 2   
    23    13    15 1   
    24    15    16 1   
    25    15    25 1   
    26    16    17 2   
@<TRIPOS>SUBSTRUCTURE
     1 5LM         1 TEMP              0 ****  ****    0 ROOT
