@<TRIPOS>MOLECULE
5LM
   25    26     1     0     0
SMALL
bcc


@<TRIPOS>ATOM
      1 CAQ          4.4360    -1.3400    -0.0630 cc         1 5LM      -0.110000
      2 CAP          5.6300    -0.5910    -0.0490 cc         1 5LM      -0.157000
      3 CAO          5.3960     0.7550    -0.0210 cd         1 5LM      -0.107100
      4 SAN          3.7300     1.1230    -0.0130 ss         1 5LM      -0.023800
      5 CAM          3.3050    -0.5540    -0.0460 cd         1 5LM      -0.087900
      6 CAL          1.9590    -1.0280    -0.0550 cf         1 5LM       0.015800
      7 CAK          0.8350    -0.2670    -0.0380 ce         1 5LM      -0.202000
      8 CAJ         -0.4290    -0.9130    -0.0480 ce         1 5LM       0.072000
      9 CAE         -1.6870    -0.3830    -0.0310 cd         1 5LM      -0.315400
     10 CAF         -2.8100    -1.3300    -0.0510 c          1 5LM       0.742700
     11 OAG         -2.6900    -2.5380    -0.0850 o          1 5LM      -0.602000
     12 NAA         -4.0660    -0.7660    -0.0270 ns         1 5LM      -0.609500
     13 CAB         -4.3700     0.5700     0.0100 c          1 5LM       0.844500
     14 OAH         -5.5090     0.9770     0.0290 o          1 5LM      -0.617500
     15 NAC         -3.2870     1.4090     0.0250 ns         1 5LM      -0.609500
     16 CAD         -1.9540     1.0550     0.0060 c          1 5LM       0.742700
     17 OAI         -1.1040     1.9240     0.0220 o          1 5LM      -0.602000
     18 H1           4.3950    -2.4200    -0.0840 ha         1 5LM       0.155000
     19 H2           6.6200    -1.0220    -0.0580 ha         1 5LM       0.158000
     20 H3           6.1240     1.5510    -0.0060 h4         1 5LM       0.172000
     21 H4           1.8590    -2.1090    -0.0750 ha         1 5LM       0.131000
     22 H6           0.8950     0.8120    -0.0170 ha         1 5LM       0.170000
     23 H8          -0.3860    -1.9980    -0.0730 ha         1 5LM       0.144000
     24 H11         -4.8540    -1.4010    -0.0430 hn         1 5LM       0.348000
     25 H12         -3.4940     2.4000     0.0520 hn         1 5LM       0.348000
@<TRIPOS>BOND
     1     1     2 1   
     2     1     5 2   
     3     1    18 1   
     4     2     3 2   
     5     2    19 1   
     6     3     4 1   
     7     3    20 1   
     8     4     5 1   
     9     5     6 1   
    10     6     7 2   
    11     6    21 1   
    12     7     8 1   
    13     7    22 1   
    14     8     9 2   
    15     8    23 1   
    16     9    10 1   
    17     9    16 1   
    18    10    11 2   
    19    10    12 1   
    20    12    13 1   
    21    12    24 1   
    22    13    14 2   
    23    13    15 1   
    24    15    16 1   
    25    15    25 1   
    26    16    17 2   
@<TRIPOS>SUBSTRUCTURE
     1 5LM         1 TEMP              0 ****  ****    0 ROOT
