@<TRIPOS>MOLECULE
5LP
   35    36     1     0     0
SMALL
No Charge or Current Charge


@<TRIPOS>ATOM
      1 N           -1.3100     0.1000    -0.1110 ns         1 5LP      -0.188000
      2 C2          -5.2210    -1.5520    -0.0160 ca         1 5LP      -0.174000
      3 C3          -5.0340    -0.1860    -0.2720 ca         1 5LP      -0.059000
      4 C4          -3.7380     0.3780    -0.3000 ca         1 5LP      -0.202600
      5 O           -2.6750     2.4800    -0.0700 o          1 5LP      -0.709000
      6 C11          5.1750     0.3510    -0.4800 ca         1 5LP       0.147000
      7 C10          4.3940    -0.6950    -0.9880 ca         1 5LP      -0.145000
      8 C9           2.9950    -0.6520    -0.8670 ca         1 5LP      -0.060000
      9 C12          4.5630     1.4440     0.1480 ca         1 5LP      -0.180000
     10 C13          3.1680     1.4950     0.2780 ca         1 5LP       0.280000
     11 C8           2.3650     0.4400    -0.2270 ca         1 5LP      -0.060000
     12 C7          -0.0420    -0.4510    -0.1690 c          1 5LP       0.660100
     13 O2           0.1920    -1.6520    -0.2520 o          1 5LP      -0.663100
     14 C6          -2.6150    -0.4650    -0.0760 ca         1 5LP       0.022000
     15 O1          -4.4320     2.3930    -1.3040 o          1 5LP      -0.709000
     16 C14         -2.8230    -1.8380     0.1910 ca         1 5LP      -0.181000
     17 C1          -4.1180    -2.3840     0.2220 ca         1 5LP      -0.071300
     18 H1          -1.3220     1.1130    -0.0750 hn         1 5LP       0.232000
     19 H2          -6.2280    -1.9610     0.0010 ha         1 5LP       0.089000
     20 H3           3.2350     3.2480     1.3750 hn         1 5LP       0.454000
     21 H4           1.6710     2.5200     1.2880 hn         1 5LP       0.454000
     22 H5          -5.9070     0.4410    -0.4460 ha         1 5LP       0.127000
     23 H6          -3.5940    -4.2290     1.2460 hc         1 5LP       0.027033
     24 H7          -5.3200    -4.0670     0.9030 hc         1 5LP       0.027033
     25 H8          -4.1930    -4.4580    -0.4070 hc         1 5LP       0.027033
     26 H9           4.8720    -1.5370    -1.4820 ha         1 5LP       0.124000
     27 H10          2.4140    -1.4650    -1.2930 ha         1 5LP       0.133000
     28 H11          5.1800     2.2490     0.5360 ha         1 5LP       0.118000
     29 H12          0.5950     1.4680    -0.0270 hn         1 5LP       0.172000
     30 H14         -1.9860    -2.4990     0.3880 ha         1 5LP       0.130000
     31 C           -4.3180    -3.8650     0.5070 c3         1 5LP      -0.035800
     32 N1           0.9430     0.5240    -0.1210 ns         1 5LP      -0.201000
     33 Cl           6.9250     0.2960    -0.6370 cl         1 5LP      -0.238000
     34 C5          -3.5980     1.8640    -0.5830 c          1 5LP       0.723600
     35 N2           2.6160     2.5810     0.9170 nv         1 5LP      -1.069000
@<TRIPOS>BOND
     1     1    12 1   
     2     1    14 1   
     3     1    18 1   
     4     2     3 ar  
     5     2    17 ar  
     6     2    19 1   
     7     3     4 ar  
     8     3    22 1   
     9     4    14 ar  
    10     4    34 1   
    11     5    34 1   
    12     6     7 ar  
    13     6     9 ar  
    14     6    33 1   
    15     7     8 ar  
    16     7    26 1   
    17     8    11 ar  
    18     8    27 1   
    19     9    10 ar  
    20     9    28 1   
    21    10    11 ar  
    22    10    35 1   
    23    11    32 1   
    24    12    13 2   
    25    12    32 1   
    26    14    16 ar  
    27    15    34 1   
    28    16    17 ar  
    29    16    30 1   
    30    17    31 1   
    31    20    35 1   
    32    21    35 1   
    33    23    31 1   
    34    24    31 1   
    35    25    31 1   
    36    29    32 1   
@<TRIPOS>SUBSTRUCTURE
     1 5LP         1 TEMP              0 ****  ****    0 ROOT
