@<TRIPOS>MOLECULE
5LP
   35    36     1     0     0
SMALL
bcc


@<TRIPOS>ATOM
      1 N           -1.3320     0.2840    -0.4180 ns         1 5LP      -0.514100
      2 C2          -5.0390    -1.5600     0.1730 ca         1 5LP      -0.192000
      3 C3          -4.9410    -0.2290    -0.1970 ca         1 5LP      -0.077000
      4 C4          -3.7180     0.3990    -0.3970 ca         1 5LP      -0.202600
      5 O           -2.6010     2.4320    -0.9610 o          1 5LP      -0.814300
      6 C11          4.9890     0.1240    -0.3000 ca         1 5LP       0.055400
      7 C10          4.2480    -0.6390    -1.1870 ca         1 5LP      -0.163000
      8 C9           2.8820    -0.4090    -1.2540 ca         1 5LP      -0.078000
      9 C12          4.4080     1.0810     0.5100 ca         1 5LP      -0.198000
     10 C13          3.0270     1.2960     0.4550 ca         1 5LP       0.141600
     11 C8           2.2640     0.5370    -0.4510 ca         1 5LP       0.032600
     12 C7          -0.0650    -0.1840    -0.2660 c          1 5LP       0.794100
     13 O2           0.2450    -1.3180     0.0660 o          1 5LP      -0.663100
     14 C6          -2.5410    -0.3660    -0.2120 ca         1 5LP       0.114600
     15 O1          -4.8170     2.4260    -0.9230 o          1 5LP      -0.814300
     16 C14         -2.6460    -1.7100     0.1580 ca         1 5LP      -0.199000
     17 C1          -3.8840    -2.3130     0.3510 ca         1 5LP      -0.071300
     18 H1          -1.5130     1.2730    -0.6850 hn         1 5LP       0.398500
     19 H2          -6.0120    -2.0110     0.3250 ha         1 5LP       0.107000
     20 H3           2.9660     2.5750     2.0230 hn         1 5LP       0.398800
     21 H4           1.4670     2.1040     1.4630 hn         1 5LP       0.398800
     22 H5          -5.8430     0.3520    -0.3340 ha         1 5LP       0.145000
     23 H6          -3.2780    -3.9980     1.5520 hc         1 5LP       0.027033
     24 H7          -4.9620    -4.0510     1.0280 hc         1 5LP       0.027033
     25 H8          -3.6660    -4.4010    -0.1100 hc         1 5LP       0.027033
     26 H9           4.7180    -1.3820    -1.8160 ha         1 5LP       0.142000
     27 H10          2.2840    -0.9720    -1.9580 ha         1 5LP       0.151000
     28 H11          5.0130     1.6530     1.2020 ha         1 5LP       0.136000
     29 H12          0.5820     1.7100    -0.7720 hn         1 5LP       0.338500
     30 H14         -1.7500    -2.2940     0.2980 ha         1 5LP       0.148000
     31 C           -3.9540    -3.7650     0.7290 c3         1 5LP      -0.035800
     32 N1           0.8800     0.7760    -0.5340 ns         1 5LP      -0.527100
     33 CL           6.7050    -0.1260    -0.1950 cl         1 5LP      -0.146400
     34 C5          -3.7190     1.8690    -0.7920 c          1 5LP       0.934200
     35 N2           2.4330     2.2670     1.2250 nv         1 5LP      -0.820200
@<TRIPOS>BOND
     1     1    12 1   
     2     1    14 1   
     3     1    18 1   
     4     2     3 ar  
     5     2    17 ar  
     6     2    19 1   
     7     3     4 ar  
     8     3    22 1   
     9     4    14 ar  
    10     4    34 1   
    11     5    34 1   
    12     6     7 ar  
    13     6     9 ar  
    14     6    33 1   
    15     7     8 ar  
    16     7    26 1   
    17     8    11 ar  
    18     8    27 1   
    19     9    10 ar  
    20     9    28 1   
    21    10    11 ar  
    22    10    35 1   
    23    11    32 1   
    24    12    13 2   
    25    12    32 1   
    26    14    16 ar  
    27    15    34 1   
    28    16    17 ar  
    29    16    30 1   
    30    17    31 1   
    31    20    35 1   
    32    21    35 1   
    33    23    31 1   
    34    24    31 1   
    35    25    31 1   
    36    29    32 1   
@<TRIPOS>SUBSTRUCTURE
     1 5LP         1 TEMP              0 ****  ****    0 ROOT
