@<TRIPOS>MOLECULE
5LS
   30    30     1     0     0
SMALL
abcg2


@<TRIPOS>ATOM
      1 C1           1.2120    -1.7740     0.1310 c6         1 5LS       0.362300
      2 O1           1.3290    -2.1560     1.4600 oh         1 5LS      -0.653000
      3 C2           1.3190    -0.2550     0.0460 c6         1 5LS       0.165300
      4 O2           2.4760     0.2110     0.7250 os         1 5LS      -0.588700
      5 C3           0.1090     0.4280     0.6780 c6         1 5LS       0.162300
      6 C4          -1.1660    -0.1190     0.0490 c6         1 5LS       0.210300
      7 C5          -1.1740    -1.6490     0.1520 c6         1 5LS       0.155300
      8 C6          -2.3540    -2.2800    -0.5550 c3         1 5LS       0.153600
      9 O3           0.1510     1.8150     0.4860 oh         1 5LS      -0.631000
     10 O4          -2.2750     0.4050     0.7650 os         1 5LS      -0.595700
     11 O5          -0.0020    -2.1740    -0.4500 os         1 5LS      -0.496000
     12 O11         -2.2990    -3.6740    -0.3500 oh         1 5LS      -0.731000
     13 S1           3.7940     0.6120    -0.1820 s6         1 5LS       1.499300
     14 S2          -3.3930     1.3390    -0.0110 s6         1 5LS       1.505300
     15 O7           3.3670     1.7430    -1.0090 o          1 5LS      -0.715200
     16 O8           4.7480     0.9510     0.8690 o          1 5LS      -0.715200
     17 O9           4.1190    -0.5910    -0.9510 o          1 5LS      -0.715200
     18 O07         -4.1580     0.4210    -0.8600 o          1 5LS      -0.714867
     19 O08         -4.1310     1.8570     1.1390 o          1 5LS      -0.714867
     20 O09         -2.6460     2.3420    -0.7680 o          1 5LS      -0.714867
     21 H1           1.9860    -2.2380    -0.4890 h2         1 5LS       0.078700
     22 H2           1.4570    -3.1100     1.5010 ho         1 5LS       0.426000
     23 H3           1.3470     0.0160    -1.0160 h1         1 5LS       0.067700
     24 H4           0.0860     0.1820     1.7510 h1         1 5LS       0.051700
     25 H5          -1.1970     0.1720    -1.0090 h1         1 5LS       0.061700
     26 H6          -1.2170    -1.9270     1.2140 h1         1 5LS       0.057700
     27 H7          -3.2750    -1.8500    -0.1540 h1         1 5LS       0.049700
     28 H8          -2.3170    -2.0230    -1.6220 h1         1 5LS       0.049700
     29 H13          0.9860     2.1390     0.8400 ho         1 5LS       0.451000
     30 H9          -3.1000    -4.0570    -0.7170 ho         1 5LS       0.479000
@<TRIPOS>BOND
     1     1     2 1   
     2     1     3 1   
     3     1    11 1   
     4     1    21 1   
     5     2    22 1   
     6     3     4 1   
     7     3     5 1   
     8     3    23 1   
     9     4    13 1   
    10     5     6 1   
    11     5     9 1   
    12     5    24 1   
    13     6     7 1   
    14     6    10 1   
    15     6    25 1   
    16     7     8 1   
    17     7    11 1   
    18     7    26 1   
    19     8    12 1   
    20     8    27 1   
    21     8    28 1   
    22     9    29 1   
    23    10    14 1   
    24    12    30 1   
    25    13    15 1   
    26    13    16 1   
    27    13    17 1   
    28    14    18 1   
    29    14    19 1   
    30    14    20 1   
@<TRIPOS>SUBSTRUCTURE
     1 5LS         1 TEMP              0 ****  ****    0 ROOT
