@<TRIPOS>MOLECULE
5LS
   30    30     1     0     0
SMALL
No Charge or Current Charge


@<TRIPOS>ATOM
      1 C1           1.2780    -1.7180     0.1280 c6         1 5LS       0.362300
      2 O1           1.3660    -2.2320     1.4580 oh         1 5LS      -0.653000
      3 C2           1.3650    -0.1500     0.0560 c6         1 5LS       0.165300
      4 O2           2.5620     0.3890     0.6820 os         1 5LS      -0.588700
      5 C3           0.1100     0.4500     0.7550 c6         1 5LS       0.162300
      6 C4          -1.2100    -0.0740     0.0860 c6         1 5LS       0.210300
      7 C5          -1.1740    -1.6340     0.2140 c6         1 5LS       0.155300
      8 C6          -2.4160    -2.3320    -0.4340 c3         1 5LS       0.153600
      9 O3           0.2100     1.8880     0.7750 oh         1 5LS      -0.631000
     10 O4          -2.3750     0.4680     0.7600 os         1 5LS      -0.595700
     11 O5           0.0260    -2.1720    -0.4190 os         1 5LS      -0.496000
     12 O11         -2.3660    -3.7750    -0.3680 oh         1 5LS      -0.731000
     13 S1           3.8960     0.6140    -0.2500 s6         1 5LS       1.499300
     14 S2          -3.4690     1.3230    -0.1200 s6         1 5LS       1.505300
     15 O7           3.5380     1.7640    -1.0900 o          1 5LS      -0.715200
     16 O8           4.9650     0.8820     0.7220 o          1 5LS      -0.715200
     17 O9           4.0430    -0.6470    -0.9890 o          1 5LS      -0.715200
     18 O07         -3.9350     0.3650    -1.1310 o          1 5LS      -0.714867
     19 O08         -4.4880     1.7070     0.8670 o          1 5LS      -0.714867
     20 O09         -2.7040     2.4480    -0.6730 o          1 5LS      -0.714867
     21 H1           2.0960    -2.1420    -0.4750 h2         1 5LS       0.078700
     22 H2           1.1770    -3.1880     1.3700 ho         1 5LS       0.426000
     23 H3           1.3380     0.1510    -1.0030 h1         1 5LS       0.067700
     24 H4           0.1110     0.0910     1.7950 h1         1 5LS       0.051700
     25 H5          -1.2140     0.2040    -0.9790 h1         1 5LS       0.061700
     26 H6          -1.1710    -1.9030     1.2810 h1         1 5LS       0.057700
     27 H7          -3.3170    -1.9700     0.0790 h1         1 5LS       0.049700
     28 H8          -2.4810    -2.0040    -1.4810 h1         1 5LS       0.049700
     29 H13          1.1680     2.0670     0.9070 ho         1 5LS       0.451000
     30 H9          -3.1500    -4.1130    -0.8600 ho         1 5LS       0.479000
@<TRIPOS>BOND
     1     1     2 1   
     2     1     3 1   
     3     1    11 1   
     4     1    21 1   
     5     2    22 1   
     6     3     4 1   
     7     3     5 1   
     8     3    23 1   
     9     4    13 1   
    10     5     6 1   
    11     5     9 1   
    12     5    24 1   
    13     6     7 1   
    14     6    10 1   
    15     6    25 1   
    16     7     8 1   
    17     7    11 1   
    18     7    26 1   
    19     8    12 1   
    20     8    27 1   
    21     8    28 1   
    22     9    29 1   
    23    10    14 1   
    24    12    30 1   
    25    13    15 1   
    26    13    16 1   
    27    13    17 1   
    28    14    18 1   
    29    14    19 1   
    30    14    20 1   
@<TRIPOS>SUBSTRUCTURE
     1 5LS         1 TEMP              0 ****  ****    0 ROOT
