@<TRIPOS>MOLECULE
5LT
   30    30     1     0     0
SMALL
abcg2


@<TRIPOS>ATOM
      1 C1         102.4030    98.2200   -37.5200 c6         1 5LT       0.411300
      2 C2         103.4100    99.2510   -37.0120 c6         1 5LT       0.103300
      3 O2         104.6650    98.6330   -36.9280 oh         1 5LT      -0.690000
      4 C3         102.9300    99.7900   -35.6570 c6         1 5LT       0.184300
      5 O3         101.7650   100.5720   -35.8850 os         1 5LT      -0.613700
      6 C4         102.5610    98.6690   -34.6780 c6         1 5LT       0.199300
      7 O4         103.7770    98.1180   -34.1840 os         1 5LT      -0.582700
      8 C5         101.7330    97.5580   -35.3330 c6         1 5LT       0.172300
      9 O5         102.2520    97.1830   -36.5940 os         1 5LT      -0.430000
     10 C6         100.2430    97.8810   -35.3780 c3         1 5LT       0.117600
     11 O6          99.5700    96.7460   -35.8710 oh         1 5LT      -0.723000
     12 S1         101.8740   102.2080   -35.6580 s6         1 5LT       1.498300
     13 S2         103.9690    98.0090   -32.5510 s6         1 5LT       1.494300
     14 O13        102.2370   102.3740   -34.2490 o          1 5LT      -0.711867
     15 O11        102.9020   102.6630   -36.5960 o          1 5LT      -0.711867
     16 O12        100.5160   102.6150   -35.9980 o          1 5LT      -0.711867
     17 O23        103.8180    99.3770   -32.0480 o          1 5LT      -0.714200
     18 O21        105.3250    97.4740   -32.4790 o          1 5LT      -0.714200
     19 O22        102.9240    97.0910   -32.0890 o          1 5LT      -0.714200
     20 H1         101.4470    98.7370   -37.6970 h2         1 5LT       0.023700
     21 H2         103.4250   100.0980   -37.7150 h1         1 5LT       0.033700
     22 HO2        105.2880    99.2570   -36.5440 ho         1 5LT       0.498000
     23 H3         103.7240   100.3890   -35.1950 h1         1 5LT       0.074700
     24 H4         101.9760    99.1150   -33.8660 h1         1 5LT       0.072700
     25 H5         101.8390    96.6680   -34.7070 h1         1 5LT       0.101700
     26 H61         99.9310    98.1260   -34.3530 h1         1 5LT       0.039700
     27 H62        100.0340    98.7660   -35.9870 h1         1 5LT       0.039700
     28 O1         102.8270    97.5760   -38.6780 oh         1 5LT      -0.653000
     29 HO1        102.7100    98.1740   -39.4230 ho         1 5LT       0.432000
     30 HO6         98.6420    96.9730   -35.9740 ho         1 5LT       0.474000
@<TRIPOS>BOND
     1     1     2 1   
     2     1     9 1   
     3     1    20 1   
     4     1    28 1   
     5     2     3 1   
     6     2     4 1   
     7     2    21 1   
     8     3    22 1   
     9     4     5 1   
    10     4     6 1   
    11     4    23 1   
    12     5    12 1   
    13     6     7 1   
    14     6     8 1   
    15     6    24 1   
    16     7    13 1   
    17     8     9 1   
    18     8    10 1   
    19     8    25 1   
    20    10    11 1   
    21    10    26 1   
    22    10    27 1   
    23    11    30 1   
    24    12    14 1   
    25    12    15 1   
    26    12    16 1   
    27    13    17 1   
    28    13    18 1   
    29    13    19 1   
    30    28    29 1   
@<TRIPOS>SUBSTRUCTURE
     1 5LT         1 TEMP              0 ****  ****    0 ROOT
