@<TRIPOS>MOLECULE
5LT
   30    30     1     0     0
SMALL
No Charge or Current Charge


@<TRIPOS>ATOM
      1 C1         102.3310    98.1760   -37.5850 c6         1 5LT       0.411300
      2 C2         103.3650    99.2710   -37.1550 c6         1 5LT       0.103300
      3 O2         104.6820    98.6980   -36.9510 oh         1 5LT      -0.690000
      4 C3         102.8640    99.9380   -35.8350 c6         1 5LT       0.184300
      5 O3         101.6270   100.6430   -36.0870 os         1 5LT      -0.613700
      6 C4         102.6750    98.8270   -34.7390 c6         1 5LT       0.199300
      7 O4         103.9810    98.3040   -34.3770 os         1 5LT      -0.582700
      8 C5         101.7780    97.6530   -35.2750 c6         1 5LT       0.172300
      9 O5         102.2560    97.1690   -36.5640 os         1 5LT      -0.430000
     10 C6         100.2410    97.9750   -35.3440 c3         1 5LT       0.117600
     11 O6          99.4440    96.8410   -35.7450 oh         1 5LT      -0.723000
     12 S1         101.4920   102.1960   -35.5730 s6         1 5LT       1.498300
     13 S2         104.3090    98.0710   -32.7850 s6         1 5LT       1.494300
     14 O13        101.6980   102.1040   -34.1230 o          1 5LT      -0.711867
     15 O11        102.5600   102.9010   -36.2930 o          1 5LT      -0.711867
     16 O12        100.1310   102.5790   -35.9730 o          1 5LT      -0.711867
     17 O23        104.4180    99.4330   -32.2480 o          1 5LT      -0.714200
     18 O21        105.5700    97.3190   -32.7970 o          1 5LT      -0.714200
     19 O22        103.1510    97.3170   -32.2870 o          1 5LT      -0.714200
     20 H1         101.3400    98.6170   -37.7680 h2         1 5LT       0.023700
     21 H2         103.4100   100.0400   -37.9410 h1         1 5LT       0.033700
     22 HO2        104.6630    98.3530   -36.0180 ho         1 5LT       0.498000
     23 H3         103.6320   100.6470   -35.4910 h1         1 5LT       0.074700
     24 H4         102.2000    99.2860   -33.8590 h1         1 5LT       0.072700
     25 H5         101.8730    96.8220   -34.5610 h1         1 5LT       0.101700
     26 H61         99.9270    98.3160   -34.3480 h1         1 5LT       0.039700
     27 H62        100.0650    98.8060   -36.0350 h1         1 5LT       0.039700
     28 O1         102.7910    97.5160   -38.7560 oh         1 5LT      -0.653000
     29 HO1        103.7370    97.3520   -38.5590 ho         1 5LT       0.432000
     30 HO6         98.5060    97.1400   -35.7760 ho         1 5LT       0.474000
@<TRIPOS>BOND
     1     1     2 1   
     2     1     9 1   
     3     1    20 1   
     4     1    28 1   
     5     2     3 1   
     6     2     4 1   
     7     2    21 1   
     8     3    22 1   
     9     4     5 1   
    10     4     6 1   
    11     4    23 1   
    12     5    12 1   
    13     6     7 1   
    14     6     8 1   
    15     6    24 1   
    16     7    13 1   
    17     8     9 1   
    18     8    10 1   
    19     8    25 1   
    20    10    11 1   
    21    10    26 1   
    22    10    27 1   
    23    11    30 1   
    24    12    14 1   
    25    12    15 1   
    26    12    16 1   
    27    13    17 1   
    28    13    18 1   
    29    13    19 1   
    30    28    29 1   
@<TRIPOS>SUBSTRUCTURE
     1 5LT         1 TEMP              0 ****  ****    0 ROOT
