@<TRIPOS>MOLECULE
5LU
   39    40     1     0     0
SMALL
abcg2


@<TRIPOS>ATOM
      1 C11         -2.8470    -0.6040    -1.3110 c3         1 5LU       0.098000
      2 C14         -4.0340    -1.3900    -1.8530 c3         1 5LU      -0.095400
      3 N1          -3.2820     0.7580     1.1490 n          1 5LU      -0.172300
      4 C2          -4.5690     0.9620     0.7030 cc         1 5LU      -0.222000
      5 C3          -4.8750     2.2380     1.0590 cd         1 5LU       0.236900
      6 N4          -3.8180     2.8220     1.7070 nd         1 5LU      -0.675000
      7 C5          -2.8920     1.9120     1.7600 cc         1 5LU       0.433400
      8 C8          -2.4790    -0.4210     1.1510 c          1 5LU       0.630900
      9 O9          -1.9390    -0.7400     2.1880 o          1 5LU      -0.550100
     10 N10         -2.3810    -1.0820    -0.0130 n          1 5LU      -0.400800
     11 C17         -4.4990    -0.8340    -3.1910 c3         1 5LU      -0.092100
     12 C21         -1.5580    -2.2820    -0.0450 c3         1 5LU       0.100000
     13 C24         -0.1300    -2.0120    -0.4690 c3         1 5LU       0.138600
     14 O27          0.4990    -1.1910     0.5180 os         1 5LU      -0.329100
     15 C28          3.9020     0.8400    -0.6270 ca         1 5LU       0.125000
     16 C29          2.6680     1.4510    -0.7710 ca         1 5LU      -0.088000
     17 C30          1.5350     0.7470    -0.3970 ca         1 5LU       0.106000
     18 C31          1.6080    -0.5440     0.1230 ca         1 5LU       0.118100
     19 C32          2.8700    -1.1190     0.2480 ca         1 5LU       0.106000
     20 C33          4.0220    -0.4410    -0.1150 ca         1 5LU      -0.088000
     21 CL2         -0.0110     1.4920    -0.5510 cl         1 5LU      -0.168500
     22 CL3          2.9890    -2.7070     0.9030 cl         1 5LU      -0.168500
     23 H1          -2.0150    -0.6760    -2.0150 h1         1 5LU       0.058700
     24 H2          -3.0840     0.4570    -1.2530 h1         1 5LU       0.058700
     25 H3          -3.7590    -2.4400    -1.9720 hc         1 5LU       0.045700
     26 H4          -4.8550    -1.3730    -1.1330 hc         1 5LU       0.045700
     27 H5          -5.1540     0.2000     0.2190 h4         1 5LU       0.159000
     28 H6          -5.8020     2.7620     0.8880 h4         1 5LU       0.038100
     29 H7          -1.9150     2.0240     2.2040 h5         1 5LU       0.071100
     30 H8          -5.3340    -1.4130    -3.5830 hc         1 5LU       0.038700
     31 H9          -4.8270     0.2020    -3.1010 hc         1 5LU       0.038700
     32 H10         -3.6980    -0.8660    -3.9320 hc         1 5LU       0.038700
     33 H11         -1.5840    -2.7790     0.9230 h1         1 5LU       0.075200
     34 H12         -1.9880    -2.9790    -0.7660 h1         1 5LU       0.075200
     35 H13          0.3970    -2.9660    -0.5640 h1         1 5LU       0.044700
     36 H14         -0.1020    -1.5210    -1.4460 h1         1 5LU       0.044700
     37 H15          2.5850     2.4520    -1.1690 ha         1 5LU       0.150000
     38 H16          4.9900    -0.9070     0.0000 ha         1 5LU       0.150000
     39 CL1          5.3270     1.7000    -1.0860 cl         1 5LU      -0.176000
@<TRIPOS>BOND
     1     1     2 1   
     2     1    10 1   
     3     1    23 1   
     4     1    24 1   
     5     2    11 1   
     6     2    25 1   
     7     2    26 1   
     8     3     4 1   
     9     3     7 1   
    10     3     8 1   
    11     4     5 2   
    12     4    27 1   
    13     5     6 1   
    14     5    28 1   
    15     6     7 2   
    16     7    29 1   
    17     8     9 2   
    18     8    10 1   
    19    10    12 1   
    20    11    30 1   
    21    11    31 1   
    22    11    32 1   
    23    12    13 1   
    24    12    33 1   
    25    12    34 1   
    26    13    14 1   
    27    13    35 1   
    28    13    36 1   
    29    14    18 1   
    30    15    16 ar  
    31    15    20 ar  
    32    15    39 1   
    33    16    17 ar  
    34    16    37 1   
    35    17    18 ar  
    36    17    21 1   
    37    18    19 ar  
    38    19    20 ar  
    39    19    22 1   
    40    20    38 1   
@<TRIPOS>SUBSTRUCTURE
     1 5LU         1 TEMP              0 ****  ****    0 ROOT
