@<TRIPOS>MOLECULE
5LU
   39    40     1     0     0
SMALL
No Charge or Current Charge


@<TRIPOS>ATOM
      1 C11         -2.7310    -0.6210    -1.2830 c3         1 5LU       0.098000
      2 C14         -3.9070    -1.3990    -1.9170 c3         1 5LU      -0.095400
      3 N1          -3.4480     0.8390     1.2930 n          1 5LU      -0.172300
      4 C2          -4.5040     1.2130     0.4970 cc         1 5LU      -0.222000
      5 C3          -5.0600     2.3650     0.9920 cd         1 5LU       0.236900
      6 N4          -4.3660     2.7190     2.1540 nd         1 5LU      -0.675000
      7 C5          -3.4380     1.7690     2.2950 cc         1 5LU       0.433400
      8 C8          -2.5900    -0.2900     1.2640 c          1 5LU       0.630900
      9 O9          -1.9950    -0.5880     2.2920 o          1 5LU      -0.550100
     10 N10         -2.3910    -1.0790     0.0880 n          1 5LU      -0.400800
     11 C17         -4.3620    -0.8030    -3.2630 c3         1 5LU      -0.092100
     12 C21         -1.5690    -2.3240     0.1700 c3         1 5LU       0.100000
     13 C24         -0.1030    -2.1600    -0.2980 c3         1 5LU       0.138600
     14 O27          0.4990    -1.0970     0.4610 os         1 5LU      -0.329100
     15 C28          3.9800     0.8010    -0.9060 ca         1 5LU       0.125000
     16 C29          2.7540     1.4830    -0.9050 ca         1 5LU      -0.088000
     17 C30          1.5940     0.8400    -0.4420 ca         1 5LU       0.106000
     18 C31          1.6550    -0.4940     0.0130 ca         1 5LU       0.118100
     19 C32          2.8970    -1.1730     0.0230 ca         1 5LU       0.106000
     20 C33          4.0540    -0.5210    -0.4400 ca         1 5LU      -0.088000
     21 Cl2          0.0620     1.7180    -0.4530 cl         1 5LU      -0.168500
     22 Cl3          3.0530    -2.8170     0.6460 cl         1 5LU      -0.168500
     23 H1          -1.8530    -0.7540    -1.9280 h1         1 5LU       0.058700
     24 H2          -2.9240     0.4570    -1.2930 h1         1 5LU       0.058700
     25 H3          -3.6080    -2.4420    -2.0750 hc         1 5LU       0.045700
     26 H4          -4.7580    -1.4210    -1.2270 hc         1 5LU       0.045700
     27 H5          -4.8080     0.6010    -0.3360 h4         1 5LU       0.159000
     28 H6          -5.9060     2.9300     0.6170 h4         1 5LU       0.038100
     29 H7          -2.7090     1.7070     3.0950 h5         1 5LU       0.071100
     30 H8          -5.1890    -1.3900    -3.6810 hc         1 5LU       0.038700
     31 H9          -4.7060     0.2300    -3.1340 hc         1 5LU       0.038700
     32 H10         -3.5380    -0.8060    -3.9870 hc         1 5LU       0.038700
     33 H11         -1.5680    -2.7130     1.1970 h1         1 5LU       0.075200
     34 H12         -2.0400    -3.0980    -0.4480 h1         1 5LU       0.075200
     35 H13          0.4330    -3.1060    -0.1550 h1         1 5LU       0.044700
     36 H14         -0.0890    -1.9220    -1.3690 h1         1 5LU       0.044700
     37 H15          2.7020     2.5080    -1.2610 ha         1 5LU       0.150000
     38 H16          5.0090    -1.0390    -0.4320 ha         1 5LU       0.150000
     39 Cl1          5.4320     1.6090    -1.4830 cl         1 5LU      -0.176000
@<TRIPOS>BOND
     1     1     2 1   
     2     1    10 1   
     3     1    23 1   
     4     1    24 1   
     5     2    11 1   
     6     2    25 1   
     7     2    26 1   
     8     3     4 1   
     9     3     7 1   
    10     3     8 1   
    11     4     5 2   
    12     4    27 1   
    13     5     6 1   
    14     5    28 1   
    15     6     7 2   
    16     7    29 1   
    17     8     9 2   
    18     8    10 1   
    19    10    12 1   
    20    11    30 1   
    21    11    31 1   
    22    11    32 1   
    23    12    13 1   
    24    12    33 1   
    25    12    34 1   
    26    13    14 1   
    27    13    35 1   
    28    13    36 1   
    29    14    18 1   
    30    15    16 ar  
    31    15    20 ar  
    32    15    39 1   
    33    16    17 ar  
    34    16    37 1   
    35    17    18 ar  
    36    17    21 1   
    37    18    19 ar  
    38    19    20 ar  
    39    19    22 1   
    40    20    38 1   
@<TRIPOS>SUBSTRUCTURE
     1 5LU         1 TEMP              0 ****  ****    0 ROOT
