@<TRIPOS>MOLECULE
5LV
   61    64     1     0     0
SMALL
No Charge or Current Charge


@<TRIPOS>ATOM
      1 N1          13.2840    -8.3200    19.7600 nu         1 5LV      -0.926100
      2 N3           8.2450   -14.5320    15.3220 n8         1 5LV      -0.996200
      3 C4          17.0030    -6.8190    18.6610 cp         1 5LV      -0.091000
      4 C5          16.7010    -8.1890    18.8700 ca         1 5LV       0.361900
      5 C6          14.5000    -7.7610    19.3780 ca         1 5LV       0.586900
      6 C7          12.8440    -9.7030    19.4920 c6         1 5LV       0.230500
      7 C8          12.5130    -9.8850    17.9950 c6         1 5LV      -0.086900
      8 C13         11.0740   -11.4410    20.0170 c6         1 5LV       0.167800
      9 C15         14.6810    -6.3610    19.1990 ca         1 5LV      -0.007400
     10 C17         18.3850    -6.4240    18.2520 cp         1 5LV      -0.083000
     11 C20         19.9430    -5.3160    16.7440 ca         1 5LV      -0.140300
     12 C21         20.2380    -4.4810    15.5120 c3         1 5LV       0.214900
     13 C22         18.6220    -5.6480    17.0930 ca         1 5LV      -0.044000
     14 C16         13.7100    -4.0490    19.2290 c          1 5LV       0.555200
     15 C1          15.0730    -3.5370    18.9050 cc         1 5LV      -0.161400
     16 C           15.2010    -2.0350    18.7910 c3         1 5LV      -0.042900
     17 N4          13.6300    -5.4150    19.3500 ns         1 5LV      -0.367100
     18 C3          15.9560    -5.8760    18.8480 ca         1 5LV      -0.047800
     19 C2          16.1260    -4.4180    18.7260 cd         1 5LV      -0.111200
     20 N           15.4840    -8.6560    19.2210 nb         1 5LV      -0.723000
     21 O1          19.9430    -3.1060    15.7730 oh         1 5LV      -0.657000
     22 C19         20.9930    -5.7800    17.5580 ca         1 5LV       0.344900
     23 N5          20.7950    -6.5390    18.6610 nb         1 5LV      -0.663000
     24 C18         19.5190    -6.8510    18.9890 ca         1 5LV       0.347900
     25 C14         11.5950   -10.0230    20.3400 c6         1 5LV      -0.086900
     26 N2          10.7640   -11.5980    18.5690 n3         1 5LV      -0.717600
     27 C9          11.9610   -11.3030    17.7260 c6         1 5LV       0.167800
     28 C11          9.5660   -13.0740    16.8590 c3         1 5LV      -0.081400
     29 C12          8.7840   -14.3910    16.6880 c3         1 5LV       0.148800
     30 H1          12.6050    -7.6730    20.1470 hn         1 5LV       0.477000
     31 H2           7.6840   -15.3920    15.2710 hn         1 5LV       0.392500
     32 H3           7.5570   -13.7870    15.1560 hn         1 5LV       0.392500
     33 H5          17.4760    -8.9430    18.7390 h4         1 5LV       0.025100
     34 H6          13.6310   -10.4200    19.7740 h1         1 5LV       0.059700
     35 H7          13.4100    -9.7200    17.3840 hc         1 5LV       0.055700
     36 H8          11.7720    -9.1390    17.6770 hc         1 5LV       0.055700
     37 H9           9.3200   -13.0820    18.9900 h1         1 5LV       0.027200
     38 H10         10.8760   -13.7190    18.4560 h1         1 5LV       0.027200
     39 H11         10.1740   -11.6270    20.6210 h1         1 5LV       0.034450
     40 H12         11.8280   -12.1800    20.3270 h1         1 5LV       0.034450
     41 H13         19.6290    -4.8490    14.6740 h1         1 5LV       0.029700
     42 H14         21.2930    -4.5990    15.2300 h1         1 5LV       0.029700
     43 H15         17.7910    -5.3150    16.4750 ha         1 5LV       0.133000
     44 H16         14.5500    -1.6440    17.9990 hc         1 5LV       0.052367
     45 H17         14.9220    -1.5440    19.7310 hc         1 5LV       0.052367
     46 H18         16.2280    -1.7350    18.5530 hc         1 5LV       0.052367
     47 H19         12.7010    -5.7700    19.5300 hn         1 5LV       0.327500
     48 H20         17.1080    -4.0070    18.5140 ha         1 5LV       0.202000
     49 H21         20.1430    -2.6120    14.9470 ho         1 5LV       0.447000
     50 H22         22.0290    -5.5430    17.3180 h4         1 5LV       0.019100
     51 H23         19.3930    -7.4620    19.8820 h4         1 5LV       0.023100
     52 H24         11.8360    -9.9540    21.4090 hc         1 5LV       0.055700
     53 H25         10.8000    -9.2910    20.1430 hc         1 5LV       0.055700
     54 H27         11.7140   -11.3690    16.6580 h1         1 5LV       0.034450
     55 H28         12.7540   -12.0400    17.9210 h1         1 5LV       0.034450
     56 H29         10.3770   -13.0480    16.1230 hc         1 5LV       0.055200
     57 H30          8.9030   -12.2270    16.6480 hc         1 5LV       0.055200
     58 H31          7.9490   -14.4220    17.4010 h1         1 5LV       0.025200
     59 H32          9.4480   -15.2430    16.8920 h1         1 5LV       0.025200
     60 C10         10.1450   -12.9180    18.2830 c3         1 5LV       0.169800
     61 O           12.7220    -3.3470    19.3850 o          1 5LV      -0.552000
@<TRIPOS>BOND
     1     1     5 1   
     2     1     6 1   
     3     1    30 1   
     4     2    29 1   
     5     2    31 1   
     6     2    32 1   
     7     3     4 ar  
     8     3    10 1   
     9     3    18 ar  
    10     4    20 ar  
    11     4    33 1   
    12     5     9 ar  
    13     5    20 ar  
    14     6     7 1   
    15     6    25 1   
    16     6    34 1   
    17     7    27 1   
    18     7    35 1   
    19     7    36 1   
    20     8    25 1   
    21     8    26 1   
    22     8    39 1   
    23     8    40 1   
    24     9    17 1   
    25     9    18 ar  
    26    10    13 ar  
    27    10    24 ar  
    28    11    12 1   
    29    11    13 ar  
    30    11    22 ar  
    31    12    21 1   
    32    12    41 1   
    33    12    42 1   
    34    13    43 1   
    35    14    15 1   
    36    14    17 1   
    37    14    61 2   
    38    15    16 1   
    39    15    19 2   
    40    16    44 1   
    41    16    45 1   
    42    16    46 1   
    43    17    47 1   
    44    18    19 1   
    45    19    48 1   
    46    21    49 1   
    47    22    23 ar  
    48    22    50 1   
    49    23    24 ar  
    50    24    51 1   
    51    25    52 1   
    52    25    53 1   
    53    26    27 1   
    54    26    60 1   
    55    27    54 1   
    56    27    55 1   
    57    28    29 1   
    58    28    56 1   
    59    28    57 1   
    60    28    60 1   
    61    29    58 1   
    62    29    59 1   
    63    37    60 1   
    64    38    60 1   
@<TRIPOS>SUBSTRUCTURE
     1 5LV         1 TEMP              0 ****  ****    0 ROOT
