@<TRIPOS>MOLECULE
5LV
   61    64     1     0     0
SMALL
bcc


@<TRIPOS>ATOM
      1 N1          13.0190    -8.0490    19.2070 nu         1 5LV      -0.870900
      2 N3           8.5260   -15.0270    15.7360 n8         1 5LV      -0.885800
      3 C4          16.8780    -6.8220    18.3810 cp         1 5LV      -0.156300
      4 C5          16.4380    -8.1230    18.2990 ca         1 5LV       0.427200
      5 C6          14.2870    -7.6300    18.9270 ca         1 5LV       0.652200
      6 C7          12.6470    -9.4510    19.1330 c6         1 5LV       0.230500
      7 C8          12.3860    -9.8960    17.6990 c6         1 5LV      -0.086900
      8 C13         10.9500   -11.1400    19.8430 c6         1 5LV       0.167800
      9 C15         14.6140    -6.2440    18.9820 ca         1 5LV      -0.072700
     10 C17         18.2780    -6.5000    18.0600 cp         1 5LV      -0.148300
     11 C20         19.9580    -5.3180    16.8070 ca         1 5LV      -0.205600
     12 C21         20.3600    -4.3230    15.7580 c3         1 5LV       0.191700
     13 C22         18.6220    -5.5590    17.0950 ca         1 5LV      -0.062000
     14 C16         13.8850    -3.9510    19.3940 c          1 5LV       0.697700
     15 C1          15.2770    -3.5350    19.2280 cc         1 5LV      -0.161400
     16 C           15.5790    -2.0840    19.4000 c3         1 5LV      -0.042900
     17 N4          13.6640    -5.2970    19.2710 ns         1 5LV      -0.434100
     18 C3          15.9230    -5.8430    18.7490 ca         1 5LV      -0.047800
     19 C2          16.2200    -4.4480    18.9130 cd         1 5LV      -0.061200
     20 N           15.1920    -8.5170    18.5730 nb         1 5LV      -0.723000
     21 O1          19.6190    -3.1400    15.9450 oh         1 5LV      -0.594800
     22 C19         20.9070    -6.0490    17.5110 ca         1 5LV       0.410200
     23 N5          20.6020    -6.9600    18.4270 nb         1 5LV      -0.663000
     24 C18         19.3230    -7.1730    18.6940 ca         1 5LV       0.413200
     25 C14         11.3910    -9.6900    19.9560 c6         1 5LV      -0.086900
     26 N2          10.7100   -11.5240    18.4630 n3         1 5LV      -0.717600
     27 C9          11.9120   -11.3410    17.6670 c6         1 5LV       0.167800
     28 C11          9.6610   -13.2750    17.0240 c3         1 5LV      -0.081400
     29 C12          8.9610   -14.6260    17.0660 c3         1 5LV       0.148800
     30 H1          12.5160    -7.5220    19.9040 hn         1 5LV       0.421800
     31 H2           8.0950   -15.9420    15.7840 hn         1 5LV       0.337300
     32 H3           7.7960   -14.4000    15.4210 hn         1 5LV       0.337300
     33 H5          17.1230    -8.9050    17.9890 h4         1 5LV       0.025100
     34 H6          13.4530   -10.0710    19.5460 h1         1 5LV       0.059700
     35 H7          13.2890    -9.8010    17.0920 hc         1 5LV       0.055700
     36 H8          11.6230    -9.2490    17.2580 hc         1 5LV       0.055700
     37 H9           9.3810   -12.9600    19.1190 h1         1 5LV       0.027200
     38 H10         10.9590   -13.6150    18.7100 h1         1 5LV       0.027200
     39 H11         10.0280   -11.2810    20.4120 h1         1 5LV       0.034450
     40 H12         11.7130   -11.7860    20.3140 h1         1 5LV       0.034450
     41 H13         20.1740    -4.7590    14.7690 h1         1 5LV       0.029700
     42 H14         21.4420    -4.1470    15.8230 h1         1 5LV       0.029700
     43 H15         17.8460    -5.0270    16.5570 ha         1 5LV       0.151000
     44 H16         15.0090    -1.4760    18.6950 hc         1 5LV       0.052367
     45 H17         15.3130    -1.7400    20.4010 hc         1 5LV       0.052367
     46 H18         16.6370    -1.8870    19.2420 hc         1 5LV       0.052367
     47 H19         12.6940    -5.5750    19.3310 hn         1 5LV       0.327500
     48 H20         17.2430    -4.1150    18.7930 ha         1 5LV       0.152000
     49 H21         19.7240    -2.5930    15.1610 ho         1 5LV       0.408000
     50 H22         21.9640    -5.8860    17.3230 h4         1 5LV       0.019100
     51 H23         19.1030    -7.9100    19.4600 h4         1 5LV       0.023100
     52 H24         11.5700    -9.4500    21.0070 hc         1 5LV       0.055700
     53 H25         10.5890    -9.0350    19.6000 hc         1 5LV       0.055700
     54 H27         11.7100   -11.6220    16.6330 h1         1 5LV       0.034450
     55 H28         12.7260   -12.0020    18.0200 h1         1 5LV       0.034450
     56 H29         10.4630   -13.3290    16.2850 hc         1 5LV       0.055200
     57 H30          8.9600   -12.5080    16.6800 hc         1 5LV       0.055200
     58 H31          8.1430   -14.5840    17.8000 h1         1 5LV       0.025200
     59 H32          9.6630   -15.3800    17.4350 h1         1 5LV       0.025200
     60 C10         10.1970   -12.8810    18.3930 c3         1 5LV       0.169800
     61 O           12.9650    -3.1790    19.6250 o          1 5LV      -0.627500
@<TRIPOS>BOND
     1     1     5 1   
     2     1     6 1   
     3     1    30 1   
     4     2    29 1   
     5     2    31 1   
     6     2    32 1   
     7     3     4 ar  
     8     3    10 1   
     9     3    18 ar  
    10     4    20 ar  
    11     4    33 1   
    12     5     9 ar  
    13     5    20 ar  
    14     6     7 1   
    15     6    25 1   
    16     6    34 1   
    17     7    27 1   
    18     7    35 1   
    19     7    36 1   
    20     8    25 1   
    21     8    26 1   
    22     8    39 1   
    23     8    40 1   
    24     9    17 1   
    25     9    18 ar  
    26    10    13 ar  
    27    10    24 ar  
    28    11    12 1   
    29    11    13 ar  
    30    11    22 ar  
    31    12    21 1   
    32    12    41 1   
    33    12    42 1   
    34    13    43 1   
    35    14    15 1   
    36    14    17 1   
    37    14    61 2   
    38    15    16 1   
    39    15    19 2   
    40    16    44 1   
    41    16    45 1   
    42    16    46 1   
    43    17    47 1   
    44    18    19 1   
    45    19    48 1   
    46    21    49 1   
    47    22    23 ar  
    48    22    50 1   
    49    23    24 ar  
    50    24    51 1   
    51    25    52 1   
    52    25    53 1   
    53    26    27 1   
    54    26    60 1   
    55    27    54 1   
    56    27    55 1   
    57    28    29 1   
    58    28    56 1   
    59    28    57 1   
    60    28    60 1   
    61    29    58 1   
    62    29    59 1   
    63    37    60 1   
    64    38    60 1   
@<TRIPOS>SUBSTRUCTURE
     1 5LV         1 TEMP              0 ****  ****    0 ROOT
