@<TRIPOS>MOLECULE
5LW
   44    47     1     0     0
SMALL
No Charge or Current Charge


@<TRIPOS>ATOM
      1 C7          -1.2000     1.7560    -0.1470 ca         1 5LW       0.197000
      2 C5           1.1700     1.5850     0.3830 ca         1 5LW       0.158100
      3 C3          -0.3440    -0.2270     0.9670 ca         1 5LW      -0.060000
      4 C4           0.9460     0.3260     0.9570 ca         1 5LW      -0.186000
      5 C6           0.0950     2.3000    -0.1500 ca         1 5LW      -0.144000
      6 C9           3.5720     1.4270     0.1520 ca         1 5LW       0.095100
      7 O8           2.4240     2.1530     0.3740 os         1 5LW      -0.245200
      8 C10          3.6020     0.3800    -0.7930 ca         1 5LW      -0.112000
      9 C11          4.7940    -0.3360    -1.0090 ca         1 5LW      -0.092000
     10 C12         -1.4480     0.4630     0.3990 ca         1 5LW      -0.101300
     11 C13          5.9540    -0.0020    -0.2900 ca         1 5LW       0.115000
     12 C14          5.9290     1.0500     0.6420 ca         1 5LW      -0.092000
     13 C15         -2.8700    -0.1540     0.4040 c5         1 5LW       0.441300
     14 O16         -3.4440    -0.0570    -0.9140 os         1 5LW      -0.441000
     15 O17         -3.7280     0.6970     1.1870 os         1 5LW      -0.452000
     16 C18          4.7380     1.7670     0.8590 ca         1 5LW      -0.112000
     17 Cl1          7.4430    -0.8970    -0.5620 cl         1 5LW      -0.193000
     18 Cl2         -2.4700     2.7770    -0.8340 cl         1 5LW      -0.180000
     19 C22         -4.8810    -0.0240    -0.7480 c5         1 5LW       0.127600
     20 C23         -5.0790     0.4950     0.7120 c5         1 5LW       0.133300
     21 C25         -2.9810    -1.6350     0.9120 c3         1 5LW       0.044600
     22 N28         -2.2930    -2.6800     0.1200 na         1 5LW      -0.052700
     23 N29         -2.1730    -3.9430     0.6050 nc         1 5LW      -0.534800
     24 C30         -1.5160    -4.5670    -0.3650 cd         1 5LW       0.518900
     25 N31         -1.2110    -3.7580    -1.4470 nd         1 5LW      -0.698000
     26 C32         -1.7080    -2.5770    -1.1250 cc         1 5LW       0.413400
     27 C40         -5.8620     1.8150     0.8430 c3         1 5LW      -0.091100
     28 H1          -0.4620    -1.2000     1.4340 ha         1 5LW       0.109000
     29 H2           1.7700    -0.2240     1.4060 ha         1 5LW       0.133000
     30 H3           0.2650     3.2860    -0.5720 ha         1 5LW       0.148000
     31 H4           2.7100     0.1250    -1.3600 ha         1 5LW       0.136000
     32 H5           4.8200    -1.1460    -1.7340 ha         1 5LW       0.135500
     33 H6           6.8300     1.3090     1.1920 ha         1 5LW       0.135500
     34 H7           4.7170     2.5830     1.5780 ha         1 5LW       0.136000
     35 H8          -5.3220     0.6400    -1.5040 h1         1 5LW       0.064200
     36 H9          -5.2920    -1.0330    -0.8810 h1         1 5LW       0.064200
     37 H10         -5.5650    -0.2700     1.3330 h1         1 5LW       0.050700
     38 H11         -2.5950    -1.6710     1.9380 h1         1 5LW       0.077200
     39 H12         -4.0350    -1.9270     0.9750 h1         1 5LW       0.077200
     40 H13         -1.2340    -5.6140    -0.3330 h5         1 5LW       0.063100
     41 H14         -1.6700    -1.6660    -1.7090 h5         1 5LW       0.060100
     42 H15         -5.3900     2.6170     0.2640 hc         1 5LW       0.050367
     43 H16         -6.8890     1.6970     0.4780 hc         1 5LW       0.050367
     44 H17         -5.9150     2.1370     1.8900 hc         1 5LW       0.050367
@<TRIPOS>BOND
     1     1     5 ar  
     2     1    10 ar  
     3     1    18 1   
     4     2     4 ar  
     5     2     5 ar  
     6     2     7 1   
     7     3     4 ar  
     8     3    10 ar  
     9     3    28 1   
    10     4    29 1   
    11     5    30 1   
    12     6     7 1   
    13     6     8 ar  
    14     6    16 ar  
    15     8     9 ar  
    16     8    31 1   
    17     9    11 ar  
    18     9    32 1   
    19    10    13 1   
    20    11    12 ar  
    21    11    17 1   
    22    12    16 ar  
    23    12    33 1   
    24    13    14 1   
    25    13    15 1   
    26    13    21 1   
    27    14    19 1   
    28    15    20 1   
    29    16    34 1   
    30    19    20 1   
    31    19    35 1   
    32    19    36 1   
    33    20    27 1   
    34    20    37 1   
    35    21    22 1   
    36    21    38 1   
    37    21    39 1   
    38    22    23 1   
    39    22    26 1   
    40    23    24 2   
    41    24    25 1   
    42    24    40 1   
    43    25    26 2   
    44    26    41 1   
    45    27    42 1   
    46    27    43 1   
    47    27    44 1   
@<TRIPOS>SUBSTRUCTURE
     1 5LW         1 TEMP              0 ****  ****    0 ROOT
