@<TRIPOS>MOLECULE
5LW
   44    47     1     0     0
SMALL
bcc


@<TRIPOS>ATOM
      1 C7          -1.2600     1.5350    -0.5040 ca         1 5LW       0.105400
      2 C5           1.1240     1.5490    -0.2300 ca         1 5LW       0.158100
      3 C3          -0.2120    -0.1390     0.7990 ca         1 5LW      -0.078000
      4 C4           1.0340     0.4220     0.5710 ca         1 5LW      -0.204000
      5 C6          -0.0300     2.1150    -0.7570 ca         1 5LW      -0.162000
      6 C9           3.4750     1.5280    -0.3130 ca         1 5LW       0.095100
      7 O8           2.2870     2.1840    -0.5170 os         1 5LW      -0.245200
      8 C10          3.8340     0.4630    -1.1270 ca         1 5LW      -0.130000
      9 C11          5.0580    -0.1600    -0.9390 ca         1 5LW      -0.110000
     10 C12         -1.3870     0.3650     0.2550 ca         1 5LW      -0.101300
     11 C13          5.9070     0.2950     0.0600 ca         1 5LW       0.023400
     12 C14          5.5530     1.3620     0.8700 ca         1 5LW      -0.110000
     13 C15         -2.7400    -0.2770     0.5100 c5         1 5LW       0.394900
     14 O16         -3.4380    -0.3740    -0.6960 os         1 5LW      -0.394600
     15 O17         -3.4790     0.5710     1.3370 os         1 5LW      -0.405600
     16 C18          4.3240     1.9780     0.6840 ca         1 5LW      -0.130000
     17 CL1          7.4370    -0.4830     0.2950 cl         1 5LW      -0.101400
     18 CL2         -2.6270     2.3680    -1.1640 cl         1 5LW      -0.088400
     19 C22         -4.8000    -0.0720    -0.4590 c5         1 5LW       0.104400
     20 C23         -4.8540     0.4100     0.9990 c5         1 5LW       0.110100
     21 C25         -2.6910    -1.6830     1.1600 c3         1 5LW       0.015300
     22 N28         -2.3680    -2.7290     0.2210 na         1 5LW      -0.023400
     23 N29         -3.3320    -3.3180    -0.4950 nc         1 5LW      -0.534800
     24 C30         -2.6710    -4.1700    -1.2400 cd         1 5LW       0.518900
     25 N31         -1.3350    -4.1640    -1.0440 nd         1 5LW      -0.698000
     26 C32         -1.1820    -3.2450    -0.1190 cc         1 5LW       0.413400
     27 C40         -5.5910     1.7120     1.2040 c3         1 5LW      -0.091100
     28 H1          -0.2390    -0.9980     1.4520 ha         1 5LW       0.127000
     29 H2           1.9070    -0.0250     1.0260 ha         1 5LW       0.151000
     30 H3           0.0380     3.0110    -1.3590 ha         1 5LW       0.166000
     31 H4           3.1710     0.1160    -1.9080 ha         1 5LW       0.154000
     32 H5           5.3440    -0.9900    -1.5700 ha         1 5LW       0.153500
     33 H6           6.2210     1.7140     1.6430 ha         1 5LW       0.153500
     34 H7           4.0350     2.8110     1.3120 ha         1 5LW       0.154000
     35 H8          -5.1160     0.7070    -1.1580 h1         1 5LW       0.064200
     36 H9          -5.4230    -0.9560    -0.6170 h1         1 5LW       0.064200
     37 H10         -5.3030    -0.3630     1.6350 h1         1 5LW       0.050700
     38 H11         -2.0060    -1.7290     2.0050 h1         1 5LW       0.077200
     39 H12         -3.6780    -1.9170     1.5560 h1         1 5LW       0.077200
     40 H13         -3.1680    -4.8210    -1.9420 h5         1 5LW       0.063100
     41 H14         -0.2490    -2.9430     0.3300 h5         1 5LW       0.060100
     42 H15         -5.1640     2.5060     0.5930 hc         1 5LW       0.050367
     43 H16         -6.6370     1.5890     0.9210 hc         1 5LW       0.050367
     44 H17         -5.5660     2.0210     2.2490 hc         1 5LW       0.050367
@<TRIPOS>BOND
     1     1     5 ar  
     2     1    10 ar  
     3     1    18 1   
     4     2     4 ar  
     5     2     5 ar  
     6     2     7 1   
     7     3     4 ar  
     8     3    10 ar  
     9     3    28 1   
    10     4    29 1   
    11     5    30 1   
    12     6     7 1   
    13     6     8 ar  
    14     6    16 ar  
    15     8     9 ar  
    16     8    31 1   
    17     9    11 ar  
    18     9    32 1   
    19    10    13 1   
    20    11    12 ar  
    21    11    17 1   
    22    12    16 ar  
    23    12    33 1   
    24    13    14 1   
    25    13    15 1   
    26    13    21 1   
    27    14    19 1   
    28    15    20 1   
    29    16    34 1   
    30    19    20 1   
    31    19    35 1   
    32    19    36 1   
    33    20    27 1   
    34    20    37 1   
    35    21    22 1   
    36    21    38 1   
    37    21    39 1   
    38    22    23 1   
    39    22    26 1   
    40    23    24 2   
    41    24    25 1   
    42    24    40 1   
    43    25    26 2   
    44    26    41 1   
    45    27    42 1   
    46    27    43 1   
    47    27    44 1   
@<TRIPOS>SUBSTRUCTURE
     1 5LW         1 TEMP              0 ****  ****    0 ROOT
