@<TRIPOS>MOLECULE
5LX
   44    47     1     0     0
SMALL
No Charge or Current Charge


@<TRIPOS>ATOM
      1 C3          -0.6740     0.3350     0.8500 ca         1 5LX      -0.040000
      2 C4           0.6260    -0.1930     0.8960 ca         1 5LX      -0.186000
      3 C5           0.8870    -1.4680     0.3710 ca         1 5LX       0.159100
      4 C6          -0.1560    -2.2130    -0.1880 ca         1 5LX      -0.148000
      5 C10          3.3120    -0.2570    -0.8070 ca         1 5LX      -0.106000
      6 C15         -3.1640     0.2110     0.2320 c5         1 5LX       0.437300
      7 C14          5.6300    -0.8230     0.6850 ca         1 5LX      -0.095000
      8 C13          5.6470     0.1930    -0.2860 ca         1 5LX       0.119000
      9 C12         -1.7460    -0.4080     0.2960 ca         1 5LX      -0.176300
     10 C11          4.4920     0.4760    -1.0330 ca         1 5LX      -0.095000
     11 C9           3.2890    -1.2680     0.1760 ca         1 5LX       0.090100
     12 C7          -1.4580    -1.6920    -0.2380 ca         1 5LX       0.171000
     13 O8           2.1520    -2.0080     0.4090 os         1 5LX      -0.247200
     14 O16         -4.1590    -0.7130     0.7080 os         1 5LX      -0.454000
     15 O17         -3.3090     1.2930     1.1730 os         1 5LX      -0.440000
     16 C18          4.4500    -1.5570     0.9120 ca         1 5LX      -0.106000
     17 Cl2         -2.6830    -2.6880    -1.0260 cl         1 5LX      -0.191000
     18 C22         -4.0390    -0.7280     2.1470 c5         1 5LX       0.126600
     19 C23         -3.4830     0.6910     2.4760 c5         1 5LX       0.131300
     20 C25         -3.5560     0.7030    -1.1860 c3         1 5LX       0.093600
     21 N28         -2.6310     1.6710    -1.8120 na         1 5LX      -0.058700
     22 N29         -2.9790     2.9730    -1.9930 nc         1 5LX      -0.523800
     23 C30         -1.9040     3.4790    -2.5840 cd         1 5LX       0.509900
     24 N31         -0.8930     2.5550    -2.7990 nd         1 5LX      -0.702000
     25 C32         -1.3730     1.4260    -2.3100 cc         1 5LX       0.414400
     26 C40         -4.4140     1.5830     3.3200 c3         1 5LX      -0.089100
     27 H1          -0.8380     1.3360     1.2450 ha         1 5LX       0.138000
     28 H2           1.4280     0.3910     1.3390 ha         1 5LX       0.134000
     29 H3           0.0490    -3.1970    -0.5990 ha         1 5LX       0.147000
     30 H4           2.4240    -0.0410    -1.3970 ha         1 5LX       0.136500
     31 H5           6.5270    -1.0430     1.2580 ha         1 5LX       0.135000
     32 H6           4.5120     1.2580    -1.7880 ha         1 5LX       0.135000
     33 H7           4.4340    -2.3450     1.6610 ha         1 5LX       0.136500
     34 H8          -5.0180    -0.9290     2.6000 h1         1 5LX       0.060200
     35 H9          -3.3350    -1.5160     2.4480 h1         1 5LX       0.060200
     36 H10         -2.5070     0.6170     2.9730 h1         1 5LX       0.055700
     37 H11         -3.6400    -0.1650    -1.8480 h1         1 5LX       0.090200
     38 H12         -4.5510     1.1580    -1.1220 h1         1 5LX       0.090200
     39 H13         -1.8070     4.5170    -2.8840 h5         1 5LX       0.062100
     40 H14         -0.8940     0.4540    -2.2880 h5         1 5LX       0.066100
     41 H15         -4.5880     1.1410     4.3080 hc         1 5LX       0.050367
     42 H16         -3.9730     2.5760     3.4700 hc         1 5LX       0.050367
     43 H17         -5.3870     1.7130     2.8330 hc         1 5LX       0.050367
     44 Cl1          7.1220     1.1080    -0.5700 cl         1 5LX      -0.193000
@<TRIPOS>BOND
     1     1     2 ar  
     2     1     9 ar  
     3     1    27 1   
     4     2     3 ar  
     5     2    28 1   
     6     3     4 ar  
     7     3    13 1   
     8     4    12 ar  
     9     4    29 1   
    10     5    10 ar  
    11     5    11 ar  
    12     5    30 1   
    13     6     9 1   
    14     6    14 1   
    15     6    15 1   
    16     6    20 1   
    17     7     8 ar  
    18     7    16 ar  
    19     7    31 1   
    20     8    10 ar  
    21     8    44 1   
    22     9    12 ar  
    23    10    32 1   
    24    11    13 1   
    25    11    16 ar  
    26    12    17 1   
    27    14    18 1   
    28    15    19 1   
    29    16    33 1   
    30    18    19 1   
    31    18    34 1   
    32    18    35 1   
    33    19    26 1   
    34    19    36 1   
    35    20    21 1   
    36    20    37 1   
    37    20    38 1   
    38    21    22 1   
    39    21    25 1   
    40    22    23 2   
    41    23    24 1   
    42    23    39 1   
    43    24    25 2   
    44    25    40 1   
    45    26    41 1   
    46    26    42 1   
    47    26    43 1   
@<TRIPOS>SUBSTRUCTURE
     1 5LX         1 TEMP              0 ****  ****    0 ROOT
