@<TRIPOS>MOLECULE
5LX
   44    47     1     0     0
SMALL
abcg2


@<TRIPOS>ATOM
      1 C3          -0.6350     0.3530     0.5000 ca         1 5LX      -0.040000
      2 C4           0.6700    -0.0690     0.3060 ca         1 5LX      -0.186000
      3 C5           0.8970    -1.3090    -0.2740 ca         1 5LX       0.159100
      4 C6          -0.1770    -2.0990    -0.6640 ca         1 5LX      -0.148000
      5 C10          3.7400    -0.2150    -1.1960 ca         1 5LX      -0.106000
      6 C15         -3.1460     0.1350     0.3530 c5         1 5LX       0.437300
      7 C14          4.9960    -0.4440     1.2780 ca         1 5LX      -0.095000
      8 C13          5.4980     0.4060     0.3060 ca         1 5LX       0.119000
      9 C12         -1.7360    -0.4180     0.1450 ca         1 5LX      -0.176300
     10 C11          4.8820     0.5260    -0.9310 ca         1 5LX      -0.095000
     11 C9           3.2360    -1.0660    -0.2250 ca         1 5LX       0.090100
     12 C7          -1.4680    -1.6470    -0.4580 ca         1 5LX       0.171000
     13 O8           2.1290    -1.8300    -0.5020 os         1 5LX      -0.247200
     14 O16         -4.0150    -0.8230     0.8820 os         1 5LX      -0.454000
     15 O17         -3.1360     1.1830     1.2670 os         1 5LX      -0.440000
     16 C18          3.8540    -1.1840     1.0100 ca         1 5LX      -0.106000
     17 CL2         -2.7400    -2.6740    -1.0390 cl         1 5LX      -0.191000
     18 C22         -4.0340    -0.6780     2.2930 c5         1 5LX       0.126600
     19 C23         -3.2310     0.6000     2.5640 c5         1 5LX       0.131300
     20 C25         -3.7500     0.6280    -0.9700 c3         1 5LX       0.093600
     21 N28         -2.8210     1.4230    -1.7270 na         1 5LX      -0.058700
     22 N29         -2.5240     2.6800    -1.3850 nc         1 5LX      -0.523800
     23 C30         -1.5840     3.0010    -2.2400 cd         1 5LX       0.509900
     24 N31         -1.2560     2.0190    -3.1080 nd         1 5LX      -0.702000
     25 C32         -2.0510     1.0380    -2.7490 cc         1 5LX       0.414400
     26 C40         -3.8900     1.5680     3.5170 c3         1 5LX      -0.089100
     27 H1          -0.7950     1.3250     0.9460 ha         1 5LX       0.138000
     28 H2           1.4850     0.5750     0.6080 ha         1 5LX       0.134000
     29 H3           0.0020    -3.0590    -1.1310 ha         1 5LX       0.147000
     30 H4           3.2540    -0.1310    -2.1590 ha         1 5LX       0.136500
     31 H5           5.4820    -0.5310     2.2400 ha         1 5LX       0.135000
     32 H6           5.2830     1.1900    -1.6840 ha         1 5LX       0.135000
     33 H7           3.4520    -1.8520     1.7610 ha         1 5LX       0.136500
     34 H8          -5.0720    -0.5900     2.6240 h1         1 5LX       0.060200
     35 H9          -3.5850    -1.5470     2.7800 h1         1 5LX       0.060200
     36 H10         -2.2280     0.3460     2.9300 h1         1 5LX       0.055700
     37 H11         -4.0390    -0.2240    -1.5830 h1         1 5LX       0.090200
     38 H12         -4.6460     1.2150    -0.7660 h1         1 5LX       0.090200
     39 H13         -1.1230     3.9770    -2.2440 h5         1 5LX       0.062100
     40 H14         -2.1100     0.0560    -3.1930 h5         1 5LX       0.066100
     41 H15         -3.9940     1.1030     4.4970 hc         1 5LX       0.050367
     42 H16         -3.2940     2.4720     3.6410 hc         1 5LX       0.050367
     43 H17         -4.8850     1.8470     3.1670 hc         1 5LX       0.050367
     44 CL1          6.9230     1.3330     0.6390 cl         1 5LX      -0.193000
@<TRIPOS>BOND
     1     1     2 ar  
     2     1     9 ar  
     3     1    27 1   
     4     2     3 ar  
     5     2    28 1   
     6     3     4 ar  
     7     3    13 1   
     8     4    12 ar  
     9     4    29 1   
    10     5    10 ar  
    11     5    11 ar  
    12     5    30 1   
    13     6     9 1   
    14     6    14 1   
    15     6    15 1   
    16     6    20 1   
    17     7     8 ar  
    18     7    16 ar  
    19     7    31 1   
    20     8    10 ar  
    21     8    44 1   
    22     9    12 ar  
    23    10    32 1   
    24    11    13 1   
    25    11    16 ar  
    26    12    17 1   
    27    14    18 1   
    28    15    19 1   
    29    16    33 1   
    30    18    19 1   
    31    18    34 1   
    32    18    35 1   
    33    19    26 1   
    34    19    36 1   
    35    20    21 1   
    36    20    37 1   
    37    20    38 1   
    38    21    22 1   
    39    21    25 1   
    40    22    23 2   
    41    23    24 1   
    42    23    39 1   
    43    24    25 2   
    44    25    40 1   
    45    26    41 1   
    46    26    42 1   
    47    26    43 1   
@<TRIPOS>SUBSTRUCTURE
     1 5LX         1 TEMP              0 ****  ****    0 ROOT
