@<TRIPOS>MOLECULE
5LY
   44    47     1     0     0
SMALL
No Charge or Current Charge


@<TRIPOS>ATOM
      1 C4           0.8200     2.2890    -0.5580 ca         1 5LY      -0.145000
      2 C5           1.7970     1.2930    -0.6190 ca         1 5LY       0.162100
      3 C7           0.0560    -0.4080    -0.5060 ca         1 5LY       0.200000
      4 C13          6.2600    -0.3900     1.1440 ca         1 5LY       0.119000
      5 C22         -3.8100    -1.5720    -0.9900 c5         1 5LY       0.135600
      6 C25         -3.4330     1.4530    -0.2320 c3         1 5LY       0.052600
      7 C23         -3.7180    -1.5590     0.5670 c5         1 5LY       0.139300
      8 C14          5.0400    -0.2240     1.8220 ca         1 5LY      -0.094000
      9 C12         -0.9600     0.5880    -0.4200 ca         1 5LY      -0.114300
     10 C11          6.4240     0.1310    -0.1510 ca         1 5LY      -0.094000
     11 C9           4.1380     0.9720    -0.1030 ca         1 5LY       0.090100
     12 C30         -6.9210     1.1530    -0.4030 cc         1 5LY       0.507900
     13 C32         -5.5570     1.2600     1.1980 cd         1 5LY       0.411400
     14 C3          -0.5380     1.9470    -0.4580 ca         1 5LY      -0.060000
     15 C6           1.4110    -0.0530    -0.6060 ca         1 5LY      -0.193000
     16 O8           3.1210     1.6560    -0.7290 os         1 5LY      -0.248200
     17 C10          5.3640     0.8160    -0.7730 ca         1 5LY      -0.105500
     18 C15         -2.4640     0.2120    -0.3040 c5         1 5LY       0.453300
     19 O16         -2.7930    -0.6370    -1.4230 os         1 5LY      -0.449000
     20 O17         -2.6310    -0.6460     0.8470 os         1 5LY      -0.464000
     21 C18          3.9780     0.4610     1.2020 ca         1 5LY      -0.105500
     22 Cl2         -0.2800    -2.1420    -0.5110 cl         1 5LY      -0.188000
     23 N28         -4.8850     1.2770    -0.0180 na         1 5LY      -0.061700
     24 N29         -5.7770     1.2360    -1.0580 nd         1 5LY      -0.527800
     25 N31         -6.8530     1.1620     0.9590 nc         1 5LY      -0.701000
     26 H1           1.1170     3.3350    -0.5850 ha         1 5LY       0.137000
     27 H2          -3.5990    -2.5610    -1.4180 h1         1 5LY       0.063200
     28 H3          -4.7950    -1.2450    -1.3460 h1         1 5LY       0.063200
     29 H4          -3.0790     2.0920     0.5860 h1         1 5LY       0.081200
     30 H5          -3.3050     2.0220    -1.1600 h1         1 5LY       0.081200
     31 H6          -4.6440    -1.1670     1.0040 h1         1 5LY       0.057700
     32 H7           4.9190    -0.6220     2.8260 ha         1 5LY       0.135500
     33 H8           7.3710     0.0050    -0.6700 ha         1 5LY       0.135500
     34 H10         -5.0550     1.3110     2.1570 h5         1 5LY       0.068100
     35 H11         -1.2460     2.7690    -0.4140 ha         1 5LY       0.115000
     36 H12          2.1620    -0.8340    -0.6820 ha         1 5LY       0.144000
     37 H13          5.4890     1.2210    -1.7740 ha         1 5LY       0.135500
     38 H14          3.0410     0.5970     1.7350 ha         1 5LY       0.135500
     39 C40         -3.4320    -2.9220     1.2280 c3         1 5LY      -0.092100
     40 Cl1          7.5860    -1.2450     1.9210 cl         1 5LY      -0.192000
     41 H9          -7.8910     1.0870    -0.8850 h5         1 5LY       0.064100
     42 H15         -2.5190    -3.3800     0.8320 hc         1 5LY       0.049367
     43 H16         -3.3150    -2.8130     2.3120 hc         1 5LY       0.049367
     44 H17         -4.2580    -3.6200     1.0500 hc         1 5LY       0.049367
@<TRIPOS>BOND
     1     1     2 ar  
     2     1    14 ar  
     3     1    26 1   
     4     2    15 ar  
     5     2    16 1   
     6     3     9 ar  
     7     3    15 ar  
     8     3    22 1   
     9     4     8 ar  
    10     4    10 ar  
    11     4    40 1   
    12     5     7 1   
    13     5    19 1   
    14     5    27 1   
    15     5    28 1   
    16     6    18 1   
    17     6    23 1   
    18     6    29 1   
    19     6    30 1   
    20     7    20 1   
    21     7    31 1   
    22     7    39 1   
    23     8    21 ar  
    24     8    32 1   
    25     9    14 ar  
    26     9    18 1   
    27    10    17 ar  
    28    10    33 1   
    29    11    16 1   
    30    11    17 ar  
    31    11    21 ar  
    32    12    24 2   
    33    12    25 1   
    34    12    41 1   
    35    13    23 1   
    36    13    25 2   
    37    13    34 1   
    38    14    35 1   
    39    15    36 1   
    40    17    37 1   
    41    18    19 1   
    42    18    20 1   
    43    21    38 1   
    44    23    24 1   
    45    39    42 1   
    46    39    43 1   
    47    39    44 1   
@<TRIPOS>SUBSTRUCTURE
     1 5LY         1 TEMP              0 ****  ****    0 ROOT
