@<TRIPOS>MOLECULE
5LY
   44    47     1     0     0
SMALL
abcg2


@<TRIPOS>ATOM
      1 C4           0.7130     2.4620     0.0820 ca         1 5LY      -0.145000
      2 C5           1.7080     1.4960     0.1100 ca         1 5LY       0.162100
      3 C7           0.0250    -0.2040    -0.0470 ca         1 5LY       0.200000
      4 C13          6.1300    -0.7210     0.4110 ca         1 5LY       0.119000
      5 C22         -3.4080    -1.6260    -0.9700 c5         1 5LY       0.135600
      6 C25         -3.3730     1.5920    -0.2830 c3         1 5LY       0.052600
      7 C23         -3.7120    -1.4780     0.5230 c5         1 5LY       0.139300
      8 C14          5.4810    -0.3390     1.5750 ca         1 5LY      -0.094000
      9 C12         -1.0060     0.7340    -0.0750 ca         1 5LY      -0.114300
     10 C11          5.7320    -0.2360    -0.8250 ca         1 5LY      -0.094000
     11 C9           4.0130     1.0280     0.2660 ca         1 5LY       0.090100
     12 C30         -6.6290     0.6650    -1.0040 cc         1 5LY       0.507900
     13 C32         -5.6390     1.3040     0.7120 cd         1 5LY       0.411400
     14 C3          -0.6090     2.0710    -0.0090 ca         1 5LY      -0.060000
     15 C6           1.3630     0.1540     0.0440 ca         1 5LY      -0.193000
     16 O8           2.9860     1.9380     0.1950 os         1 5LY      -0.248200
     17 C10          4.6610     0.6430    -0.8970 ca         1 5LY      -0.105500
     18 C15         -2.4760     0.3380    -0.1810 c5         1 5LY       0.453300
     19 O16         -2.6720    -0.4650    -1.3120 os         1 5LY      -0.449000
     20 O17         -2.8350    -0.4280     0.9300 os         1 5LY      -0.464000
     21 C18          4.4120     0.5410     1.5000 ca         1 5LY      -0.105500
     22 CL2         -0.2750    -1.9060    -0.1350 cl         1 5LY      -0.188000
     23 N28         -4.7750     1.2720    -0.3080 na         1 5LY      -0.061700
     24 N29         -5.4010     0.8670    -1.4180 nd         1 5LY      -0.527800
     25 N31         -6.8290     0.9230     0.3070 nc         1 5LY      -0.701000
     26 H1           0.9670     3.5120     0.1300 ha         1 5LY       0.137000
     27 H2          -2.8060    -2.5140    -1.1790 h1         1 5LY       0.063200
     28 H3          -4.3210    -1.6790    -1.5650 h1         1 5LY       0.063200
     29 H4          -3.2180     2.2390     0.5780 h1         1 5LY       0.081200
     30 H5          -3.1360     2.1610    -1.1810 h1         1 5LY       0.081200
     31 H6          -4.7520    -1.1710     0.6690 h1         1 5LY       0.057700
     32 H7           5.8010    -0.7200     2.5350 ha         1 5LY       0.135500
     33 H8           6.2470    -0.5360    -1.7270 ha         1 5LY       0.135500
     34 H10         -5.3600     1.6070     1.7090 h5         1 5LY       0.068100
     35 H11         -1.3430     2.8620    -0.0260 ha         1 5LY       0.115000
     36 H12          2.1160    -0.6230     0.0570 ha         1 5LY       0.144000
     37 H13          4.3400     1.0290    -1.8560 ha         1 5LY       0.135500
     38 H14          3.9010     0.8480     2.4030 ha         1 5LY       0.135500
     39 C40         -3.4710    -2.7200     1.3500 c3         1 5LY      -0.092100
     40 CL1          7.4650    -1.8200     0.5030 cl         1 5LY      -0.192000
     41 H9          -7.4090     0.3300    -1.6710 h5         1 5LY       0.064100
     42 H15         -2.4440    -3.0710     1.2660 hc         1 5LY       0.049367
     43 H16         -3.6940    -2.5390     2.4020 hc         1 5LY       0.049367
     44 H17         -4.1330    -3.5150     1.0070 hc         1 5LY       0.049367
@<TRIPOS>BOND
     1     1     2 ar  
     2     1    14 ar  
     3     1    26 1   
     4     2    15 ar  
     5     2    16 1   
     6     3     9 ar  
     7     3    15 ar  
     8     3    22 1   
     9     4     8 ar  
    10     4    10 ar  
    11     4    40 1   
    12     5     7 1   
    13     5    19 1   
    14     5    27 1   
    15     5    28 1   
    16     6    18 1   
    17     6    23 1   
    18     6    29 1   
    19     6    30 1   
    20     7    20 1   
    21     7    31 1   
    22     7    39 1   
    23     8    21 ar  
    24     8    32 1   
    25     9    14 ar  
    26     9    18 1   
    27    10    17 ar  
    28    10    33 1   
    29    11    16 1   
    30    11    17 ar  
    31    11    21 ar  
    32    12    24 2   
    33    12    25 1   
    34    12    41 1   
    35    13    23 1   
    36    13    25 2   
    37    13    34 1   
    38    14    35 1   
    39    15    36 1   
    40    17    37 1   
    41    18    19 1   
    42    18    20 1   
    43    21    38 1   
    44    23    24 1   
    45    39    42 1   
    46    39    43 1   
    47    39    44 1   
@<TRIPOS>SUBSTRUCTURE
     1 5LY         1 TEMP              0 ****  ****    0 ROOT
