@<TRIPOS>MOLECULE
5LZ
   44    47     1     0     0
SMALL
No Charge or Current Charge


@<TRIPOS>ATOM
      1 C4           0.8070     2.1380    -0.9210 ca         1 5LZ      -0.138000
      2 C5           1.7540     1.5450    -0.0840 ca         1 5LZ       0.154100
      3 C6           1.3660     0.5000     0.7650 ca         1 5LZ      -0.183000
      4 C3          -0.5220     1.6840    -0.9230 ca         1 5LZ      -0.063000
      5 C7           0.0400     0.0370     0.7720 ca         1 5LZ       0.190000
      6 O8           3.0480     2.0150    -0.0950 os         1 5LZ      -0.247200
      7 C9           4.1430     1.1900     0.0210 ca         1 5LZ       0.100100
      8 C10          5.2540     1.6350     0.7590 ca         1 5LZ      -0.116500
      9 C11          6.3910     0.8160     0.8830 ca         1 5LZ      -0.088500
     10 C12         -0.9500     0.6320    -0.0670 ca         1 5LZ      -0.120300
     11 C13          6.4190    -0.4450     0.2620 ca         1 5LZ       0.113000
     12 C14          5.3160    -0.8870    -0.4870 ca         1 5LZ      -0.088500
     13 C15         -2.4230     0.1370    -0.0830 c5         1 5LZ       0.447300
     14 O16         -2.8960     0.0070     1.2760 os         1 5LZ      -0.464000
     15 O17         -2.4120    -1.2040    -0.6280 os         1 5LZ      -0.455000
     16 C18          4.1780    -0.0690    -0.6130 ca         1 5LZ      -0.116500
     17 Cl1          7.8420    -1.4670     0.4170 cl         1 5LZ      -0.193000
     18 Cl2         -0.2840    -1.3190     1.8570 cl         1 5LZ      -0.192000
     19 C22         -3.7280    -1.1720     1.3530 c5         1 5LZ       0.127600
     20 C23         -3.1860    -2.0820     0.2210 c5         1 5LZ       0.146300
     21 C25         -3.4010     1.0490    -0.9080 c3         1 5LZ       0.066600
     22 N28         -4.8630     0.9070    -0.7520 na         1 5LZ      -0.058700
     23 N29         -5.6390     0.3900    -1.7410 nc         1 5LZ      -0.529800
     24 C30         -6.8620     0.5150    -1.2420 cd         1 5LZ       0.507900
     25 N31         -6.9030     1.1180     0.0050 nd         1 5LZ      -0.704000
     26 C32         -5.6370     1.3720     0.2860 cc         1 5LZ       0.418400
     27 C40         -4.2510    -2.8270    -0.6080 c3         1 5LZ      -0.095100
     28 H1           1.1050     2.9480    -1.5820 ha         1 5LZ       0.137000
     29 H2           2.0940     0.0380     1.4250 ha         1 5LZ       0.144000
     30 H3          -1.2040     2.1700    -1.6160 ha         1 5LZ       0.118000
     31 H4           5.2300     2.6110     1.2370 ha         1 5LZ       0.135000
     32 H5           7.2490     1.1570     1.4580 ha         1 5LZ       0.135000
     33 H6           5.3450    -1.8600    -0.9720 ha         1 5LZ       0.135000
     34 H7           3.3310    -0.4120    -1.2030 ha         1 5LZ       0.135000
     35 H8          -3.6290    -1.6340     2.3440 h1         1 5LZ       0.065200
     36 H9          -4.7810    -0.9100     1.2000 h1         1 5LZ       0.065200
     37 H10         -2.5010    -2.8290     0.6430 h1         1 5LZ       0.060700
     38 H11         -3.1730     2.0890    -0.6470 h1         1 5LZ       0.083200
     39 H12         -3.1580     0.9230    -1.9700 h1         1 5LZ       0.083200
     40 H13         -7.7630     0.1910    -1.7540 h5         1 5LZ       0.063100
     41 H14         -5.2340     1.8530     1.1690 h5         1 5LZ       0.069100
     42 H15         -3.7820    -3.4180    -1.4030 hc         1 5LZ       0.051367
     43 H16         -4.8230    -3.5160     0.0250 hc         1 5LZ       0.051367
     44 H17         -4.9590    -2.1360    -1.0740 hc         1 5LZ       0.051367
@<TRIPOS>BOND
     1     1     2 ar  
     2     1     4 ar  
     3     1    28 1   
     4     2     3 ar  
     5     2     6 1   
     6     3     5 ar  
     7     3    29 1   
     8     4    10 ar  
     9     4    30 1   
    10     5    10 ar  
    11     5    18 1   
    12     6     7 1   
    13     7     8 ar  
    14     7    16 ar  
    15     8     9 ar  
    16     8    31 1   
    17     9    11 ar  
    18     9    32 1   
    19    10    13 1   
    20    11    12 ar  
    21    11    17 1   
    22    12    16 ar  
    23    12    33 1   
    24    13    14 1   
    25    13    15 1   
    26    13    21 1   
    27    14    19 1   
    28    15    20 1   
    29    16    34 1   
    30    19    20 1   
    31    19    35 1   
    32    19    36 1   
    33    20    27 1   
    34    20    37 1   
    35    21    22 1   
    36    21    38 1   
    37    21    39 1   
    38    22    23 1   
    39    22    26 1   
    40    23    24 2   
    41    24    25 1   
    42    24    40 1   
    43    25    26 2   
    44    26    41 1   
    45    27    42 1   
    46    27    43 1   
    47    27    44 1   
@<TRIPOS>SUBSTRUCTURE
     1 5LZ         1 TEMP              0 ****  ****    0 ROOT
