@<TRIPOS>MOLECULE
5LZ
   44    47     1     0     0
SMALL
abcg2


@<TRIPOS>ATOM
      1 C4           0.7600     2.0060    -1.2470 ca         1 5LZ      -0.138000
      2 C5           1.7180     1.4090    -0.4410 ca         1 5LZ       0.154100
      3 C6           1.3360     0.4390     0.4730 ca         1 5LZ      -0.183000
      4 C3          -0.5610     1.6260    -1.1190 ca         1 5LZ      -0.063000
      5 C7           0.0010     0.0710     0.5710 ca         1 5LZ       0.190000
      6 O8           2.9970     1.8420    -0.5730 os         1 5LZ      -0.247200
      7 C9           4.0340     1.0460    -0.1590 ca         1 5LZ       0.100100
      8 C10          4.8990     1.5420     0.8020 ca         1 5LZ      -0.116500
      9 C11          5.9970     0.7890     1.1940 ca         1 5LZ      -0.088500
     10 C12         -0.9960     0.6570    -0.2130 ca         1 5LZ      -0.120300
     11 C13          6.2020    -0.4570     0.6270 ca         1 5LZ       0.113000
     12 C14          5.3350    -0.9590    -0.3330 ca         1 5LZ      -0.088500
     13 C15         -2.4730     0.2600    -0.1700 c5         1 5LZ       0.447300
     14 O16         -2.8790     0.0380     1.1480 os         1 5LZ      -0.464000
     15 O17         -2.6920    -0.9250    -0.8830 os         1 5LZ      -0.455000
     16 C18          4.2460    -0.2010    -0.7300 ca         1 5LZ      -0.116500
     17 CL1          7.5670    -1.4020     1.1200 cl         1 5LZ      -0.193000
     18 CL2         -0.3210    -1.1750     1.7330 cl         1 5LZ      -0.192000
     19 C22         -3.5440    -1.2100     1.2360 c5         1 5LZ       0.127600
     20 C23         -3.0780    -1.9730     0.0030 c5         1 5LZ       0.146300
     21 C25         -3.3570     1.3710    -0.7770 c3         1 5LZ       0.066600
     22 N28         -4.7540     1.1110    -0.5630 na         1 5LZ      -0.058700
     23 N29         -5.4870     0.4000    -1.4270 nc         1 5LZ      -0.529800
     24 C30         -6.6660     0.3670    -0.8540 cd         1 5LZ       0.507900
     25 N31         -6.7320     1.0170     0.3280 nd         1 5LZ      -0.704000
     26 C32         -5.5100     1.4710     0.4790 cc         1 5LZ       0.418400
     27 C40         -4.1380    -2.8410    -0.6320 c3         1 5LZ      -0.095100
     28 H1           1.0430     2.7610    -1.9680 ha         1 5LZ       0.137000
     29 H2           2.0620    -0.0380     1.1180 ha         1 5LZ       0.144000
     30 H3          -1.2690     2.1170    -1.7700 ha         1 5LZ       0.118000
     31 H4           4.7250     2.5170     1.2400 ha         1 5LZ       0.135000
     32 H5           6.6760     1.1760     1.9410 ha         1 5LZ       0.135000
     33 H6           5.5070    -1.9310    -0.7750 ha         1 5LZ       0.135000
     34 H7           3.5750    -0.5870    -1.4880 ha         1 5LZ       0.135000
     35 H8          -3.2590    -1.7000     2.1670 h1         1 5LZ       0.065200
     36 H9          -4.6320    -1.0750     1.2350 h1         1 5LZ       0.065200
     37 H10         -2.2030    -2.5870     0.2380 h1         1 5LZ       0.060700
     38 H11         -3.1190     2.3280    -0.3120 h1         1 5LZ       0.083200
     39 H12         -3.2010     1.4660    -1.8500 h1         1 5LZ       0.083200
     40 H13         -7.5070    -0.1360    -1.3060 h5         1 5LZ       0.063100
     41 H14         -5.1370     2.0600     1.3030 h5         1 5LZ       0.069100
     42 H15         -3.7720    -3.3020    -1.5500 hc         1 5LZ       0.051367
     43 H16         -4.4090    -3.6460     0.0520 hc         1 5LZ       0.051367
     44 H17         -5.0360    -2.2670    -0.8620 hc         1 5LZ       0.051367
@<TRIPOS>BOND
     1     1     2 ar  
     2     1     4 ar  
     3     1    28 1   
     4     2     3 ar  
     5     2     6 1   
     6     3     5 ar  
     7     3    29 1   
     8     4    10 ar  
     9     4    30 1   
    10     5    10 ar  
    11     5    18 1   
    12     6     7 1   
    13     7     8 ar  
    14     7    16 ar  
    15     8     9 ar  
    16     8    31 1   
    17     9    11 ar  
    18     9    32 1   
    19    10    13 1   
    20    11    12 ar  
    21    11    17 1   
    22    12    16 ar  
    23    12    33 1   
    24    13    14 1   
    25    13    15 1   
    26    13    21 1   
    27    14    19 1   
    28    15    20 1   
    29    16    34 1   
    30    19    20 1   
    31    19    35 1   
    32    19    36 1   
    33    20    27 1   
    34    20    37 1   
    35    21    22 1   
    36    21    38 1   
    37    21    39 1   
    38    22    23 1   
    39    22    26 1   
    40    23    24 2   
    41    24    25 1   
    42    24    40 1   
    43    25    26 2   
    44    26    41 1   
    45    27    42 1   
    46    27    43 1   
    47    27    44 1   
@<TRIPOS>SUBSTRUCTURE
     1 5LZ         1 TEMP              0 ****  ****    0 ROOT
