@<TRIPOS>MOLECULE
5M0
   19    19     1     0     0
SMALL
No Charge or Current Charge


@<TRIPOS>ATOM
      1 OAC         -2.7280     0.2480     0.3910 o          1 5M0      -0.730500
      2 CAH         -1.7960     0.7490    -0.2250 c          1 5M0       0.720600
      3 OAD         -1.9170     1.7590    -0.9030 o          1 5M0      -0.730500
      4 CAK         -0.4210     0.1410    -0.1020 ca         1 5M0      -0.204600
      5 CAG          0.7080     0.9920    -0.0720 ca         1 5M0      -0.043000
      6 CAI          2.0090     0.4660     0.0390 ca         1 5M0      -0.175300
      7 CAA          3.2120     1.3980     0.0700 c3         1 5M0      -0.018800
      8 CAE          2.1890    -0.9250     0.1130 ca         1 5M0      -0.086000
      9 CAF          1.0750    -1.7770     0.0780 ca         1 5M0      -0.227000
     10 CAJ         -0.2210    -1.2530    -0.0290 ca         1 5M0       0.324000
     11 NAB         -1.2650    -2.1310    -0.0660 nv         1 5M0      -1.098000
     12 H2           0.5720     2.0710    -0.1310 ha         1 5M0       0.124000
     13 H3           4.0540     0.9480     0.6100 hc         1 5M0       0.018367
     14 H4           3.5510     1.6320    -0.9460 hc         1 5M0       0.018367
     15 H5           2.9700     2.3440     0.5690 hc         1 5M0       0.018367
     16 H6           3.1890    -1.3460     0.1940 ha         1 5M0       0.076000
     17 H7           1.2280    -2.8520     0.1330 ha         1 5M0       0.082000
     18 H8          -1.1090    -3.0830     0.2560 hn         1 5M0       0.466000
     19 H9          -2.1870    -1.7310     0.1240 hn         1 5M0       0.466000
@<TRIPOS>BOND
     1     1     2 1   
     2     2     3 1   
     3     2     4 1   
     4     4     5 ar  
     5     4    10 ar  
     6     5     6 ar  
     7     5    12 1   
     8     6     7 1   
     9     6     8 ar  
    10     7    13 1   
    11     7    14 1   
    12     7    15 1   
    13     8     9 ar  
    14     8    16 1   
    15     9    10 ar  
    16     9    17 1   
    17    10    11 1   
    18    11    18 1   
    19    11    19 1   
@<TRIPOS>SUBSTRUCTURE
     1 5M0         1 TEMP              0 ****  ****    0 ROOT
