@<TRIPOS>MOLECULE
5M0
   19    19     1     0     0
SMALL
bcc


@<TRIPOS>ATOM
      1 OAC         -2.7940     0.0530     0.0210 o          1 5M0      -0.835800
      2 CAH         -1.7830     0.7850    -0.1320 c          1 5M0       0.931200
      3 OAD         -1.8140     2.0170    -0.3030 o          1 5M0      -0.835800
      4 CAK         -0.4150     0.1250    -0.0880 ca         1 5M0      -0.204600
      5 CAG          0.7150     0.9480    -0.0800 ca         1 5M0      -0.061000
      6 CAI          2.0120     0.4700     0.0080 ca         1 5M0      -0.175300
      7 CAA          3.1970     1.3950     0.0160 c3         1 5M0      -0.018800
      8 CAE          2.1750    -0.9140     0.0920 ca         1 5M0      -0.104000
      9 CAF          1.0880    -1.7620     0.0730 ca         1 5M0      -0.245000
     10 CAJ         -0.2270    -1.2730    -0.0220 ca         1 5M0       0.185600
     11 NAB         -1.2680    -2.1650    -0.1000 nv         1 5M0      -0.849200
     12 H2           0.5520     2.0170    -0.1360 ha         1 5M0       0.142000
     13 H3           3.8220     1.2470     0.8990 hc         1 5M0       0.018367
     14 H4           3.8390     1.2410    -0.8550 hc         1 5M0       0.018367
     15 H5           2.8840     2.4380     0.0090 hc         1 5M0       0.018367
     16 H6           3.1710    -1.3370     0.1710 ha         1 5M0       0.094000
     17 H7           1.2430    -2.8340     0.1280 ha         1 5M0       0.100000
     18 H8          -1.1150    -3.0630     0.3290 hn         1 5M0       0.410800
     19 H9          -2.1690    -1.7380     0.0730 hn         1 5M0       0.410800
@<TRIPOS>BOND
     1     1     2 1   
     2     2     3 1   
     3     2     4 1   
     4     4     5 ar  
     5     4    10 ar  
     6     5     6 ar  
     7     5    12 1   
     8     6     7 1   
     9     6     8 ar  
    10     7    13 1   
    11     7    14 1   
    12     7    15 1   
    13     8     9 ar  
    14     8    16 1   
    15     9    10 ar  
    16     9    17 1   
    17    10    11 1   
    18    11    18 1   
    19    11    19 1   
@<TRIPOS>SUBSTRUCTURE
     1 5M0         1 TEMP              0 ****  ****    0 ROOT
