@<TRIPOS>MOLECULE
5M1
   15    15     1     0     0
SMALL
No Charge or Current Charge


@<TRIPOS>ATOM
      1 C10          1.8620    -0.0870    -0.0890 c          1 5M1       0.731600
      2 C12          0.3950     0.1550    -0.0260 cc         1 5M1      -0.195600
      3 O11          2.6290     0.8650    -0.0420 o          1 5M1      -0.726500
      4 C22         -0.2120     1.3830     0.0840 cd         1 5M1      -0.193000
      5 C23         -1.6080     1.2050     0.1140 cd         1 5M1      -0.202000
      6 C24         -1.8900    -0.1290     0.0230 cc         1 5M1      -0.235300
      7 N25         -0.6510    -0.7740    -0.0620 na         1 5M1      -0.080000
      8 C26         -3.2210    -0.8310     0.0130 c3         1 5M1      -0.003800
      9 H19          0.3030     2.3380     0.1380 ha         1 5M1       0.125000
     10 H20         -2.3440     2.0000     0.1950 ha         1 5M1       0.096000
     11 H21         -0.5190    -1.7780    -0.1410 hn         1 5M1       0.346000
     12 H22         -3.3560    -1.3990    -0.9160 hc         1 5M1       0.021367
     13 H23         -3.3020    -1.5300     0.8540 hc         1 5M1       0.021367
     14 H24         -4.0460    -0.1120     0.0910 hc         1 5M1       0.021367
     15 O1           2.2470    -1.2430    -0.1860 o          1 5M1      -0.726500
@<TRIPOS>BOND
     1     1     2 1   
     2     1     3 1   
     3     1    15 1   
     4     2     4 2   
     5     2     7 1   
     6     4     5 1   
     7     4     9 1   
     8     5     6 2   
     9     5    10 1   
    10     6     7 1   
    11     6     8 1   
    12     7    11 1   
    13     8    12 1   
    14     8    13 1   
    15     8    14 1   
@<TRIPOS>SUBSTRUCTURE
     1 5M1         1 TEMP              0 ****  ****    0 ROOT
