@<TRIPOS>MOLECULE
5M1
   15    15     1     0     0
SMALL
bcc


@<TRIPOS>ATOM
      1 C10          1.7980    -0.1700    -0.0960 c          1 5M1       0.942200
      2 C12          0.3620     0.2340    -0.0180 cc         1 5M1      -0.144900
      3 O11          2.6390     0.7490    -0.0630 o          1 5M1      -0.831800
      4 C22         -0.2350     1.4700     0.0930 cd         1 5M1      -0.211000
      5 C23         -1.6350     1.2650     0.1230 cd         1 5M1      -0.220000
      6 C24         -1.8590    -0.0930     0.0280 cc         1 5M1      -0.184600
      7 N25         -0.6440    -0.6900    -0.0550 na         1 5M1      -0.131100
      8 C26         -3.1330    -0.8640     0.0060 c3         1 5M1      -0.003800
      9 H19          0.2820     2.4160     0.1470 ha         1 5M1       0.143000
     10 H20         -2.4040     2.0190     0.2040 ha         1 5M1       0.114000
     11 H21         -0.4780    -1.6810    -0.1300 hn         1 5M1       0.295700
     12 H22         -3.2430    -1.4410    -0.9150 hc         1 5M1       0.021367
     13 H23         -3.2010    -1.5670     0.8380 hc         1 5M1       0.021367
     14 H24         -3.9830    -0.1870     0.0750 hc         1 5M1       0.021367
     15 O1           2.0210    -1.3970    -0.1880 o          1 5M1      -0.831800
@<TRIPOS>BOND
     1     1     2 1   
     2     1     3 1   
     3     1    15 1   
     4     2     4 2   
     5     2     7 1   
     6     4     5 1   
     7     4     9 1   
     8     5     6 2   
     9     5    10 1   
    10     6     7 1   
    11     6     8 1   
    12     7    11 1   
    13     8    12 1   
    14     8    13 1   
    15     8    14 1   
@<TRIPOS>SUBSTRUCTURE
     1 5M1         1 TEMP              0 ****  ****    0 ROOT
