@<TRIPOS>MOLECULE
5M2
   28    29     1     0     0
SMALL
abcg2


@<TRIPOS>ATOM
      1 C10         31.8910    74.9500    61.5870 ca         1 5M2      -0.122800
      2 C13         35.6010    77.8340    62.8040 ce         1 5M2      -0.532200
      3 C01         32.1770    77.0700    60.2990 c3         1 5M2      -0.053800
      4 C02         32.7100    76.0470    61.2660 ca         1 5M2       0.021700
      5 C03         33.9340    76.1550    61.9460 ca         1 5M2      -0.153600
      6 C04         34.3110    75.1880    62.9130 ca         1 5M2      -0.044000
      7 C05         33.5260    74.0970    63.2170 ca         1 5M2      -0.161000
      8 C06         32.3090    73.9880    62.5450 ca         1 5M2      -0.032200
      9 N07         31.3160    73.0520    62.6500 na         1 5M2      -0.238700
     10 C08         30.2830    73.3820    61.7990 cc         1 5M2      -0.189100
     11 C09         30.5920    74.5360    61.1320 cd         1 5M2      -0.227200
     12 C11         34.8960    77.2580    61.6880 c          1 5M2       0.594900
     13 O12         35.0960    77.6810    60.5210 o          1 5M2      -0.662100
     14 C14         36.4900    78.8560    62.6310 cf         1 5M2       0.161900
     15 O15         36.7630    79.3460    61.4300 oh         1 5M2      -0.526100
     16 C16         37.2380    79.5110    63.8090 c          1 5M2       0.704200
     17 O17         38.1370    80.3250    63.5060 o          1 5M2      -0.686000
     18 O18         36.8700    79.1560    64.9520 o          1 5M2      -0.686000
     19 H1          35.4040    77.5010    63.8090 ha         1 5M2       0.213000
     20 H2          31.4800    77.7390    60.8140 hc         1 5M2       0.048700
     21 H3          32.9640    77.6710    59.8590 hc         1 5M2       0.048700
     22 H4          31.6160    76.5830    59.5010 hc         1 5M2       0.048700
     23 H5          35.2660    75.2980    63.4090 ha         1 5M2       0.132000
     24 H6          33.8420    73.3590    63.9430 ha         1 5M2       0.108000
     25 H7          31.3400    72.2420    63.2470 hn         1 5M2       0.340000
     26 H8          29.4090    72.7540    61.7350 h4         1 5M2       0.200000
     27 H9          29.9640    75.0330    60.4120 ha         1 5M2       0.197000
     28 H12         36.1830    78.8190    60.7950 ho         1 5M2       0.494000
@<TRIPOS>BOND
     1     1     4 ar  
     2     1     8 ar  
     3     1    11 1   
     4     2    12 1   
     5     2    14 2   
     6     2    19 1   
     7     3     4 1   
     8     3    20 1   
     9     3    21 1   
    10     3    22 1   
    11     4     5 ar  
    12     5     6 ar  
    13     5    12 1   
    14     6     7 ar  
    15     6    23 1   
    16     7     8 ar  
    17     7    24 1   
    18     8     9 1   
    19     9    10 1   
    20     9    25 1   
    21    10    11 2   
    22    10    26 1   
    23    11    27 1   
    24    12    13 2   
    25    14    15 1   
    26    14    16 1   
    27    15    28 1   
    28    16    17 1   
    29    16    18 1   
@<TRIPOS>SUBSTRUCTURE
     1 5M2         1 TEMP              0 ****  ****    0 ROOT
