@<TRIPOS>MOLECULE
5M2
   28    29     1     0     0
SMALL
No Charge or Current Charge


@<TRIPOS>ATOM
      1 C10         31.8860    74.9060    61.5960 ca         1 5M2      -0.122800
      2 C13         35.6200    77.9470    62.7810 ce         1 5M2      -0.532200
      3 C01         32.1480    77.0440    60.2420 c3         1 5M2      -0.053800
      4 C02         32.6610    76.0350    61.2690 ca         1 5M2       0.021700
      5 C03         33.9020    76.1960    61.9570 ca         1 5M2      -0.153600
      6 C04         34.2920    75.2300    62.9300 ca         1 5M2      -0.044000
      7 C05         33.4760    74.1200    63.2260 ca         1 5M2      -0.161000
      8 C06         32.2730    73.9900    62.5320 ca         1 5M2      -0.032200
      9 N07         31.3140    72.9960    62.6400 na         1 5M2      -0.238700
     10 C08         30.2490    73.2490    61.7500 cc         1 5M2      -0.189100
     11 C09         30.6110    74.4260    61.1120 cd         1 5M2      -0.227200
     12 C11         34.8320    77.3530    61.6650 c          1 5M2       0.594900
     13 O12         35.0000    77.7830    60.5300 o          1 5M2      -0.662100
     14 C14         36.5580    78.9400    62.6800 cf         1 5M2       0.161900
     15 O15         36.8040    79.4250    61.4480 oh         1 5M2      -0.526100
     16 C16         37.3270    79.5120    63.8940 c          1 5M2       0.704200
     17 O17         38.1510    80.4040    63.7100 o          1 5M2      -0.686000
     18 O18         37.0930    79.0600    65.0110 o          1 5M2      -0.686000
     19 H1          35.4020    77.5540    63.7710 ha         1 5M2       0.213000
     20 H2          32.3170    78.0740    60.5760 hc         1 5M2       0.048700
     21 H3          32.6510    76.9110    59.2780 hc         1 5M2       0.048700
     22 H4          31.0710    76.9460    60.0690 hc         1 5M2       0.048700
     23 H5          35.2460    75.3230    63.4450 ha         1 5M2       0.132000
     24 H6          33.7820    73.3830    63.9650 ha         1 5M2       0.108000
     25 H7          31.3760    72.2020    63.2710 hn         1 5M2       0.340000
     26 H8          29.3780    72.6070    61.6500 h4         1 5M2       0.200000
     27 H9          30.0070    74.9080    60.3470 ha         1 5M2       0.197000
     28 H12         36.1820    78.9060    60.8710 ho         1 5M2       0.494000
@<TRIPOS>BOND
     1     1     4 ar  
     2     1     8 ar  
     3     1    11 1   
     4     2    12 1   
     5     2    14 2   
     6     2    19 1   
     7     3     4 1   
     8     3    20 1   
     9     3    21 1   
    10     3    22 1   
    11     4     5 ar  
    12     5     6 ar  
    13     5    12 1   
    14     6     7 ar  
    15     6    23 1   
    16     7     8 ar  
    17     7    24 1   
    18     8     9 1   
    19     9    10 1   
    20     9    25 1   
    21    10    11 2   
    22    10    26 1   
    23    11    27 1   
    24    12    13 2   
    25    14    15 1   
    26    14    16 1   
    27    15    28 1   
    28    16    17 1   
    29    16    18 1   
@<TRIPOS>SUBSTRUCTURE
     1 5M2         1 TEMP              0 ****  ****    0 ROOT
