@<TRIPOS>MOLECULE
5M6
   43    46     1     0     0
SMALL
bcc


@<TRIPOS>ATOM
      1 N3          -2.2640     1.2570     0.0060 na         1 5M6       0.191300
      2 C6           1.4820     1.7720    -0.2490 cc         1 5M6      -0.142700
      3 C7           0.7960     2.9340    -0.0760 cd         1 5M6       0.004000
      4 C8          -1.8490     3.3590     0.2230 cd         1 5M6       0.390600
      5 C10         -3.0620     0.1060    -0.0310 ca         1 5M6       0.031800
      6 C15         -4.2930     0.0960     0.6190 ca         1 5M6      -0.128500
      7 C17         -4.6290    -2.1720    -0.0780 ca         1 5M6       0.018400
      8 C20         -3.4060    -2.1700    -0.7280 ca         1 5M6      -0.104000
      9 C22         -2.1060     4.8080     0.4240 c3         1 5M6      -0.125400
     10 C24          6.6560    -1.6030    -0.6000 c5         1 5M6      -0.105400
     11 C1          -0.9270     1.3740    -0.1140 cc         1 5M6       0.012600
     12 C2          -0.6020     2.7110     0.0140 cd         1 5M6      -0.261300
     13 N4          -2.8180     2.4750     0.2150 nc         1 5M6      -0.502800
     14 S5           0.4340     0.3600    -0.3400 ss         1 5M6      -0.081800
     15 C9           2.9510     1.6640    -0.3730 c          1 5M6       0.707700
     16 N11          3.4760     0.4450    -0.1570 ns         1 5M6      -0.563900
     17 O12          3.6180     2.6460    -0.6680 o          1 5M6      -0.600100
     18 O13          4.5470    -2.1430     0.3510 os         1 5M6      -0.423600
     19 C14         -2.6260    -1.0250    -0.7110 ca         1 5M6      -0.128500
     20 C16          4.8960     0.1780    -0.2280 c3         1 5M6       0.085000
     21 C18          5.1570    -1.2720    -0.5960 c5         1 5M6       0.120100
     22 C19         -5.0790    -1.0430     0.5900 ca         1 5M6      -0.104000
     23 CL1         -5.6100    -3.5980    -0.1050 cl         1 5M6      -0.101400
     24 C23          5.5530    -2.8200     1.0880 c5         1 5M6       0.129400
     25 C25          6.7200    -2.9450     0.1250 c5         1 5M6      -0.113400
     26 H1           1.2810     3.8970    -0.0020 ha         1 5M6       0.175000
     27 H2          -4.6390     0.9710     1.1490 ha         1 5M6       0.156500
     28 H3          -3.0620    -3.0450    -1.2610 ha         1 5M6       0.153000
     29 H4          -1.5350     5.1870     1.2720 hc         1 5M6       0.055033
     30 H5          -1.8010     5.3820    -0.4520 hc         1 5M6       0.055033
     31 H6          -3.1620     4.9950     0.6080 hc         1 5M6       0.055033
     32 H8           7.2170    -0.8460    -0.0460 hc         1 5M6       0.057200
     33 H9           2.9240    -0.2520     0.3220 hn         1 5M6       0.325500
     34 H10         -1.6960    -1.0300    -1.2650 ha         1 5M6       0.156500
     35 H11          5.3390     0.8220    -0.9880 h1         1 5M6       0.056700
     36 H12          5.3850     0.4160     0.7230 h1         1 5M6       0.056700
     37 H13          4.7040    -1.4770    -1.5730 h1         1 5M6       0.070700
     38 H14         -6.0330    -1.0480     1.0990 ha         1 5M6       0.153000
     39 H15          5.8460    -2.2470     1.9770 h1         1 5M6       0.047700
     40 H16          5.1540    -3.7780     1.4220 h1         1 5M6       0.047700
     41 H17          6.5580    -3.7710    -0.5700 hc         1 5M6       0.058200
     42 H18          7.6700    -3.1100     0.6320 hc         1 5M6       0.058200
     43 H7           7.0620    -1.6390    -1.6100 hc         1 5M6       0.057200
@<TRIPOS>BOND
     1     1     5 1   
     2     1    11 1   
     3     1    13 1   
     4     2     3 2   
     5     2    14 1   
     6     2    15 1   
     7     3    12 1   
     8     3    26 1   
     9     4     9 1   
    10     4    12 1   
    11     4    13 2   
    12     5     6 ar  
    13     5    19 ar  
    14     6    22 ar  
    15     6    27 1   
    16     7     8 ar  
    17     7    22 ar  
    18     7    23 1   
    19     8    19 ar  
    20     8    28 1   
    21     9    29 1   
    22     9    30 1   
    23     9    31 1   
    24    10    21 1   
    25    10    25 1   
    26    10    32 1   
    27    10    43 1   
    28    11    12 2   
    29    11    14 1   
    30    15    16 1   
    31    15    17 2   
    32    16    20 1   
    33    16    33 1   
    34    18    21 1   
    35    18    24 1   
    36    19    34 1   
    37    20    21 1   
    38    20    35 1   
    39    20    36 1   
    40    21    37 1   
    41    22    38 1   
    42    24    25 1   
    43    24    39 1   
    44    24    40 1   
    45    25    41 1   
    46    25    42 1   
@<TRIPOS>SUBSTRUCTURE
     1 5M6         1 TEMP              0 ****  ****    0 ROOT
