@<TRIPOS>MOLECULE
5M6
   43    46     1     0     0
SMALL
No Charge or Current Charge


@<TRIPOS>ATOM
      1 N3          -2.2610     1.3070    -0.0530 na         1 5M6       0.242000
      2 C6           1.4770     1.8000    -0.1190 cc         1 5M6      -0.287600
      3 C7           0.7420     2.9830    -0.1160 cd         1 5M6       0.022000
      4 C8          -1.8540     3.3940    -0.0250 cd         1 5M6       0.325300
      5 C10         -2.9920     0.1140    -0.0150 ca         1 5M6       0.031800
      6 C15         -3.9940    -0.0770     0.9610 ca         1 5M6      -0.110500
      7 C17         -4.4650    -2.2930     0.0710 ca         1 5M6       0.110000
      8 C20         -3.4730    -2.1120    -0.9060 ca         1 5M6      -0.086000
      9 C22         -2.0330     4.8720     0.1600 c3         1 5M6      -0.125400
     10 C24          6.7050    -1.6560    -0.5540 c5         1 5M6      -0.105400
     11 C1          -0.9170     1.4030    -0.3350 cc         1 5M6      -0.183000
     12 C2          -0.6400     2.6840    -0.1680 cd         1 5M6      -0.196000
     13 N4          -2.8890     2.5500     0.0460 nc         1 5M6      -0.502800
     14 S5           0.4340     0.3410    -0.0670 ss         1 5M6       0.208000
     15 C9           2.9480     1.7650    -0.1070 c          1 5M6       0.640700
     16 N11          3.4720     0.4960    -0.0840 ns         1 5M6      -0.496900
     17 O12          3.6510     2.7650    -0.1150 o          1 5M6      -0.600100
     18 O13          4.4200    -2.2300    -0.1620 os         1 5M6      -0.470000
     19 C14         -2.7390    -0.9130    -0.9510 ca         1 5M6      -0.110500
     20 C16          4.9030     0.1750    -0.0810 c3         1 5M6       0.085000
     21 C18          5.2260    -1.1850    -0.7550 c5         1 5M6       0.143300
     22 C19         -4.7270    -1.2770     1.0040 ca         1 5M6      -0.086000
     23 Cl1         -5.3820    -3.7930     0.1250 cl         1 5M6      -0.193000
     24 C23          5.1880    -2.8070     0.9060 c5         1 5M6       0.152600
     25 C25          6.5620    -2.9940     0.2320 c5         1 5M6      -0.113400
     26 H1           1.1650     3.9820    -0.0410 ha         1 5M6       0.157000
     27 H2          -4.2010     0.7040     1.6900 ha         1 5M6       0.138500
     28 H3          -3.2760    -2.9000    -1.6300 ha         1 5M6       0.135000
     29 H4          -2.0240     5.1330     1.2250 hc         1 5M6       0.055033
     30 H5          -1.2260     5.4280    -0.3310 hc         1 5M6       0.055033
     31 H6          -2.9830     5.2140    -0.2670 hc         1 5M6       0.055033
     32 H8           7.2870    -0.9220     0.0140 hc         1 5M6       0.057200
     33 H9           2.8160    -0.2730    -0.0770 hn         1 5M6       0.325500
     34 H10         -1.9790    -0.7810    -1.7180 ha         1 5M6       0.138500
     35 H11          5.4550     0.9640    -0.6080 h1         1 5M6       0.056700
     36 H12          5.2520     0.1600     0.9600 h1         1 5M6       0.056700
     37 H13          4.9700    -1.1120    -1.8220 h1         1 5M6       0.070700
     38 H14         -5.4960    -1.4190     1.7590 ha         1 5M6       0.135000
     39 H15          5.2280    -2.1090     1.7530 h1         1 5M6       0.047700
     40 H16          4.7350    -3.7520     1.2350 h1         1 5M6       0.047700
     41 H17          6.5510    -3.8570    -0.4440 hc         1 5M6       0.058200
     42 H18          7.3700    -3.1510     0.9560 hc         1 5M6       0.058200
     43 H7           7.2230    -1.7990    -1.5100 hc         1 5M6       0.057200
@<TRIPOS>BOND
     1     1     5 1   
     2     1    11 1   
     3     1    13 1   
     4     2     3 2   
     5     2    14 1   
     6     2    15 1   
     7     3    12 1   
     8     3    26 1   
     9     4     9 1   
    10     4    12 1   
    11     4    13 2   
    12     5     6 ar  
    13     5    19 ar  
    14     6    22 ar  
    15     6    27 1   
    16     7     8 ar  
    17     7    22 ar  
    18     7    23 1   
    19     8    19 ar  
    20     8    28 1   
    21     9    29 1   
    22     9    30 1   
    23     9    31 1   
    24    10    21 1   
    25    10    25 1   
    26    10    32 1   
    27    10    43 1   
    28    11    12 2   
    29    11    14 1   
    30    15    16 1   
    31    15    17 2   
    32    16    20 1   
    33    16    33 1   
    34    18    21 1   
    35    18    24 1   
    36    19    34 1   
    37    20    21 1   
    38    20    35 1   
    39    20    36 1   
    40    21    37 1   
    41    22    38 1   
    42    24    25 1   
    43    24    39 1   
    44    24    40 1   
    45    25    41 1   
    46    25    42 1   
@<TRIPOS>SUBSTRUCTURE
     1 5M6         1 TEMP              0 ****  ****    0 ROOT
