@<TRIPOS>MOLECULE
5M7
   44    47     1     0     0
SMALL
No Charge or Current Charge


@<TRIPOS>ATOM
      1 N1           0.9570    -1.8810    -0.2470 nb         1 5M7      -0.799000
      2 C2           1.5120    -0.6610    -0.1240 ca         1 5M7       0.653900
      3 C3           0.7480     0.5020    -0.0240 ca         1 5M7      -0.156600
      4 C4          -0.6680     0.4470    -0.0400 cp         1 5M7      -0.014000
      5 C5          -0.3890    -1.9830    -0.2730 ca         1 5M7       0.307000
      6 C6          -1.2410    -0.8470    -0.1730 ca         1 5M7      -0.092000
      7 C7          -2.6440    -1.0230    -0.2230 ca         1 5M7      -0.065000
      8 C8          -3.1980    -2.3050    -0.3570 ca         1 5M7       0.085000
      9 C9          -2.3630    -3.4260    -0.4470 ca         1 5M7      -0.115000
     10 C10         -0.9680    -3.2600    -0.4070 ca         1 5M7      -0.097000
     11 C11         -1.5060     1.6800     0.0670 cp         1 5M7       0.001000
     12 C12         -1.5710     2.6080    -0.9990 ca         1 5M7      -0.077500
     13 C13         -2.2620     1.9420     1.2340 ca         1 5M7      -0.077500
     14 C14         -3.0600     3.0950     1.3320 ca         1 5M7      -0.121000
     15 C15         -2.3680     3.7620    -0.9020 ca         1 5M7      -0.121000
     16 C16         -3.1120     4.0060     0.2640 ca         1 5M7      -0.123000
     17 C17          1.3840     1.8380     0.1050 c          1 5M7       0.718600
     18 O18          1.3850     2.3690     1.2070 o          1 5M7      -0.700000
     19 O19          1.8270     2.3640    -0.9050 o          1 5M7      -0.700000
     20 N20          2.9140    -0.6700    -0.0760 nh         1 5M7      -0.758300
     21 C21          3.6890    -1.5800    -0.9630 c6         1 5M7       0.221300
     22 C22          3.5780    -0.4130     1.2280 c6         1 5M7       0.221300
     23 C23          4.9970     0.1710     1.0210 c6         1 5M7      -0.085900
     24 C24          5.1140    -1.0250    -1.2130 c6         1 5M7      -0.085900
     25 C25          5.8530    -0.7480     0.1180 c6         1 5M7      -0.072400
     26 Cl1         -4.9430    -2.5070    -0.4160 cl         1 5M7      -0.249000
     27 H1          -3.3190    -0.1740    -0.1650 ha         1 5M7       0.129000
     28 H2          -2.7920    -4.4190    -0.5510 ha         1 5M7       0.110000
     29 H3          -0.3250    -4.1320    -0.4810 ha         1 5M7       0.117000
     30 H4          -1.0000     2.4250    -1.9070 ha         1 5M7       0.119000
     31 H5          -2.2250     1.2420     2.0650 ha         1 5M7       0.119000
     32 H6          -3.6350     3.2830     2.2360 ha         1 5M7       0.096000
     33 H7          -2.4080     4.4660    -1.7310 ha         1 5M7       0.096000
     34 H8          -3.7290     4.8980     0.3390 ha         1 5M7       0.091000
     35 H10          3.7630    -2.5790    -0.5090 h1         1 5M7       0.044700
     36 H11          3.1820    -1.6930    -1.9330 h1         1 5M7       0.044700
     37 H12          2.9890     0.2880     1.8360 h1         1 5M7       0.044700
     38 H13          3.6520    -1.3510     1.7990 h1         1 5M7       0.044700
     39 H14          4.9180     1.1680     0.5670 hc         1 5M7       0.049700
     40 H15          5.4880     0.3070     1.9930 hc         1 5M7       0.049700
     41 H16          5.6880    -1.7370    -1.8220 hc         1 5M7       0.049700
     42 H17          5.0460    -0.0970    -1.7980 hc         1 5M7       0.049700
     43 H18          6.8280    -0.2830    -0.0800 hc         1 5M7       0.023200
     44 H19          6.0520    -1.6970     0.6360 hc         1 5M7       0.023200
@<TRIPOS>BOND
     1     1     2 ar  
     2     1     5 ar  
     3     2     3 ar  
     4     2    20 1   
     5     3     4 ar  
     6     3    17 1   
     7     4     6 ar  
     8     4    11 1   
     9     5     6 ar  
    10     5    10 ar  
    11     6     7 ar  
    12     7     8 ar  
    13     7    27 1   
    14     8     9 ar  
    15     8    26 1   
    16     9    10 ar  
    17     9    28 1   
    18    10    29 1   
    19    11    12 ar  
    20    11    13 ar  
    21    12    15 ar  
    22    12    30 1   
    23    13    14 ar  
    24    13    31 1   
    25    14    16 ar  
    26    14    32 1   
    27    15    16 ar  
    28    15    33 1   
    29    16    34 1   
    30    17    18 1   
    31    17    19 1   
    32    20    21 1   
    33    20    22 1   
    34    21    24 1   
    35    21    35 1   
    36    21    36 1   
    37    22    23 1   
    38    22    37 1   
    39    22    38 1   
    40    23    25 1   
    41    23    39 1   
    42    23    40 1   
    43    24    25 1   
    44    24    41 1   
    45    24    42 1   
    46    25    43 1   
    47    25    44 1   
@<TRIPOS>SUBSTRUCTURE
     1 5M7         1 TEMP              0 ****  ****    0 ROOT
