@<TRIPOS>MOLECULE
5M7
   44    47     1     0     0
SMALL
abcg2


@<TRIPOS>ATOM
      1 N1           0.9350    -1.8930    -0.3150 nb         1 5M7      -0.799000
      2 C2           1.5150    -0.7510    -0.0350 ca         1 5M7       0.653900
      3 C3           0.7650     0.4680     0.1460 ca         1 5M7      -0.156600
      4 C4          -0.5990     0.4020     0.0810 cp         1 5M7      -0.014000
      5 C5          -0.4080    -1.9580    -0.4260 ca         1 5M7       0.307000
      6 C6          -1.2420    -0.8400    -0.2090 ca         1 5M7      -0.092000
      7 C7          -2.6380    -0.9800    -0.3310 ca         1 5M7      -0.065000
      8 C8          -3.1720    -2.2010    -0.6470 ca         1 5M7       0.085000
      9 C9          -2.3600    -3.3250    -0.8620 ca         1 5M7      -0.115000
     10 C10         -1.0000    -3.1970    -0.7560 ca         1 5M7      -0.097000
     11 C11         -1.4270     1.6260     0.2180 cp         1 5M7       0.001000
     12 C12         -1.4980     2.5420    -0.8270 ca         1 5M7      -0.077500
     13 C13         -2.1690     1.8530     1.3730 ca         1 5M7      -0.077500
     14 C14         -2.9660     2.9840     1.4860 ca         1 5M7      -0.121000
     15 C15         -2.2960     3.6730    -0.7160 ca         1 5M7      -0.121000
     16 C16         -3.0310     3.8980     0.4410 ca         1 5M7      -0.123000
     17 C17          1.4290     1.8380     0.2470 c          1 5M7       0.718600
     18 O18          1.2870     2.4550     1.3160 o          1 5M7      -0.700000
     19 O19          2.0240     2.2050    -0.7800 o          1 5M7      -0.700000
     20 N20          2.8840    -0.7390     0.0280 nh         1 5M7      -0.758300
     21 C21          3.6330    -1.8600    -0.5090 c6         1 5M7       0.221300
     22 C22          3.5910    -0.0690     1.1100 c6         1 5M7       0.221300
     23 C23          4.9120     0.4980     0.6210 c6         1 5M7      -0.085900
     24 C24          4.9760    -1.3750    -1.0420 c6         1 5M7      -0.085900
     25 C25          5.7660    -0.6100     0.0140 c6         1 5M7      -0.072400
     26 CL1         -4.8940    -2.3750    -0.7960 cl         1 5M7      -0.249000
     27 H1          -3.2850    -0.1260    -0.1820 ha         1 5M7       0.129000
     28 H2          -2.8030    -4.2790    -1.1130 ha         1 5M7       0.110000
     29 H3          -0.3550    -4.0500    -0.9220 ha         1 5M7       0.117000
     30 H4          -0.9270     2.3700    -1.7300 ha         1 5M7       0.119000
     31 H5          -2.1230     1.1430     2.1900 ha         1 5M7       0.119000
     32 H6          -3.5360     3.1530     2.3900 ha         1 5M7       0.096000
     33 H7          -2.3440     4.3780    -1.5350 ha         1 5M7       0.096000
     34 H8          -3.6530     4.7790     0.5270 ha         1 5M7       0.091000
     35 H10          3.7900    -2.6300     0.2610 h1         1 5M7       0.044700
     36 H11          3.0610    -2.3250    -1.3080 h1         1 5M7       0.044700
     37 H12          2.9740     0.7050     1.5560 h1         1 5M7       0.044700
     38 H13          3.7850    -0.8020     1.9070 h1         1 5M7       0.044700
     39 H14          4.7070     1.2720    -0.1230 hc         1 5M7       0.049700
     40 H15          5.4330     0.9740     1.4540 hc         1 5M7       0.049700
     41 H16          5.5450    -2.2350    -1.4020 hc         1 5M7       0.049700
     42 H17          4.7960    -0.7270    -1.9050 hc         1 5M7       0.049700
     43 H18          6.6800    -0.1990    -0.4200 hc         1 5M7       0.023200
     44 H19          6.0790    -1.2980     0.8070 hc         1 5M7       0.023200
@<TRIPOS>BOND
     1     1     2 ar  
     2     1     5 ar  
     3     2     3 ar  
     4     2    20 1   
     5     3     4 ar  
     6     3    17 1   
     7     4     6 ar  
     8     4    11 1   
     9     5     6 ar  
    10     5    10 ar  
    11     6     7 ar  
    12     7     8 ar  
    13     7    27 1   
    14     8     9 ar  
    15     8    26 1   
    16     9    10 ar  
    17     9    28 1   
    18    10    29 1   
    19    11    12 ar  
    20    11    13 ar  
    21    12    15 ar  
    22    12    30 1   
    23    13    14 ar  
    24    13    31 1   
    25    14    16 ar  
    26    14    32 1   
    27    15    16 ar  
    28    15    33 1   
    29    16    34 1   
    30    17    18 1   
    31    17    19 1   
    32    20    21 1   
    33    20    22 1   
    34    21    24 1   
    35    21    35 1   
    36    21    36 1   
    37    22    23 1   
    38    22    37 1   
    39    22    38 1   
    40    23    25 1   
    41    23    39 1   
    42    23    40 1   
    43    24    25 1   
    44    24    41 1   
    45    24    42 1   
    46    25    43 1   
    47    25    44 1   
@<TRIPOS>SUBSTRUCTURE
     1 5M7         1 TEMP              0 ****  ****    0 ROOT
