@<TRIPOS>MOLECULE
5M8
   32    34     1     0     0
SMALL
No Charge or Current Charge


@<TRIPOS>ATOM
      1 C5           1.2230    -2.4860     0.0100 ca         1 5M8       0.405300
      2 C6          -1.0530    -1.9790     0.0050 ca         1 5M8       0.260000
      3 C7           2.9880    -0.6820     0.0300 c          1 5M8       0.718600
      4 C8          -1.8670     0.3330    -0.0300 ca         1 5M8      -0.078000
      5 C17          1.4970     1.9290    -1.1440 ca         1 5M8      -0.078500
      6 C20          1.8160     3.2980    -1.1540 ca         1 5M8      -0.122500
      7 C21          1.5520     4.0900    -0.0240 ca         1 5M8      -0.122000
      8 C1           1.5640    -1.1290     0.0020 ca         1 5M8      -0.136600
      9 C2           0.5620    -0.1240     0.0030 cp         1 5M8      -0.022000
     10 C3          -0.7860    -0.5800    -0.0020 ca         1 5M8      -0.062000
     11 N4          -0.0640    -2.9020     0.0130 nb         1 5M8      -0.712000
     12 C9           0.9080     1.3300    -0.0050 cp         1 5M8      -0.006000
     13 O10          3.6530    -0.8300    -0.9850 o          1 5M8      -0.702000
     14 C11         -2.3910    -2.4180     0.0010 ca         1 5M8      -0.077000
     15 C12         -3.1910    -0.1290    -0.0340 ca         1 5M8       0.100000
     16 O13          3.4360    -0.2530     1.0830 o          1 5M8      -0.702000
     17 C14         -3.4570    -1.5030    -0.0160 ca         1 5M8      -0.127000
     18 Cl1         -4.5220     1.0200    -0.0660 cl         1 5M8      -0.244000
     19 C16          2.2710    -3.5880     0.0380 c3         1 5M8      -0.146400
     20 C18          0.6510     2.1430     1.1250 ca         1 5M8      -0.078500
     21 C19          0.9690     3.5120     1.1160 ca         1 5M8      -0.122500
     22 H1          -1.6950     1.4050    -0.0530 ha         1 5M8       0.131000
     23 H4           1.7980     5.1490    -0.0320 ha         1 5M8       0.092000
     24 H5          -2.6030    -3.4840     0.0100 ha         1 5M8       0.119000
     25 H7          -4.4830    -1.8610    -0.0200 ha         1 5M8       0.112000
     26 H8           2.8340    -3.6120    -0.9010 hc         1 5M8       0.053367
     27 H9           2.9820    -3.4300     0.8570 hc         1 5M8       0.053367
     28 H10          1.8210    -4.5780     0.1800 hc         1 5M8       0.053367
     29 H11          0.2020     1.7020     2.0120 ha         1 5M8       0.122500
     30 H12          0.7650     4.1230     1.9920 ha         1 5M8       0.097500
     31 H2           1.7020     1.3240    -2.0240 ha         1 5M8       0.122500
     32 H3           2.2680     3.7440    -2.0380 ha         1 5M8       0.097500
@<TRIPOS>BOND
     1     1     8 ar  
     2     1    11 ar  
     3     1    19 1   
     4     2    10 ar  
     5     2    11 ar  
     6     2    14 ar  
     7     3     8 1   
     8     3    13 1   
     9     3    16 1   
    10     4    10 ar  
    11     4    15 ar  
    12     4    22 1   
    13     5     6 ar  
    14     5    12 ar  
    15     5    31 1   
    16     6     7 ar  
    17     6    32 1   
    18     7    21 ar  
    19     7    23 1   
    20     8     9 ar  
    21     9    10 ar  
    22     9    12 1   
    23    12    20 ar  
    24    14    17 ar  
    25    14    24 1   
    26    15    17 ar  
    27    15    18 1   
    28    17    25 1   
    29    19    26 1   
    30    19    27 1   
    31    19    28 1   
    32    20    21 ar  
    33    20    29 1   
    34    21    30 1   
@<TRIPOS>SUBSTRUCTURE
     1 5M8         1 TEMP              0 ****  ****    0 ROOT
