@<TRIPOS>MOLECULE
5M8
   32    34     1     0     0
SMALL
abcg2


@<TRIPOS>ATOM
      1 C5           1.1820    -2.4560     0.0130 ca         1 5M8       0.405300
      2 C6          -1.0520    -1.9360     0.0330 ca         1 5M8       0.260000
      3 C7           3.0220    -0.6940     0.0020 c          1 5M8       0.718600
      4 C8          -1.8850     0.3520    -0.0370 ca         1 5M8      -0.078000
      5 C17          1.5420     1.8790    -1.1000 ca         1 5M8      -0.078500
      6 C20          1.8590     3.2310    -1.1120 ca         1 5M8      -0.122500
      7 C21          1.5520     4.0300    -0.0200 ca         1 5M8      -0.122000
      8 C1           1.5510    -1.0790    -0.0010 ca         1 5M8      -0.136600
      9 C2           0.5650    -0.1270     0.0090 cp         1 5M8      -0.022000
     10 C3          -0.7960    -0.5450     0.0070 ca         1 5M8      -0.062000
     11 N4          -0.0610    -2.8570     0.0430 nb         1 5M8      -0.712000
     12 C9           0.9080     1.3140     0.0040 cp         1 5M8      -0.006000
     13 O10          3.6150    -0.8270    -1.0820 o          1 5M8      -0.702000
     14 C11         -2.3880    -2.3930     0.0430 ca         1 5M8      -0.077000
     15 C12         -3.1630    -0.1340    -0.0320 ca         1 5M8       0.100000
     16 O13          3.4790    -0.3030     1.0870 o          1 5M8      -0.702000
     17 C14         -3.4340    -1.5130     0.0140 ca         1 5M8      -0.127000
     18 CL1         -4.5000     0.9690    -0.0890 cl         1 5M8      -0.244000
     19 C16          2.2470    -3.5100     0.0090 c3         1 5M8      -0.146400
     20 C18          0.6010     2.1220     1.0960 ca         1 5M8      -0.078500
     21 C19          0.9230     3.4720     1.0860 ca         1 5M8      -0.122500
     22 H1          -1.7110     1.4180    -0.0820 ha         1 5M8       0.131000
     23 H4           1.8010     5.0830    -0.0290 ha         1 5M8       0.092000
     24 H5          -2.5670    -3.4610     0.0700 ha         1 5M8       0.119000
     25 H7          -4.4550    -1.8670     0.0210 ha         1 5M8       0.112000
     26 H8           2.8310    -3.4690    -0.9110 hc         1 5M8       0.053367
     27 H9           2.9470    -3.3640     0.8340 hc         1 5M8       0.053367
     28 H10          1.8050    -4.5000     0.1000 hc         1 5M8       0.053367
     29 H11          0.1160     1.6910     1.9640 ha         1 5M8       0.122500
     30 H12          0.6830     4.0880     1.9430 ha         1 5M8       0.097500
     31 H2           1.7850     1.2610    -1.9540 ha         1 5M8       0.122500
     32 H3           2.3480     3.6590    -1.9780 ha         1 5M8       0.097500
@<TRIPOS>BOND
     1     1     8 ar  
     2     1    11 ar  
     3     1    19 1   
     4     2    10 ar  
     5     2    11 ar  
     6     2    14 ar  
     7     3     8 1   
     8     3    13 1   
     9     3    16 1   
    10     4    10 ar  
    11     4    15 ar  
    12     4    22 1   
    13     5     6 ar  
    14     5    12 ar  
    15     5    31 1   
    16     6     7 ar  
    17     6    32 1   
    18     7    21 ar  
    19     7    23 1   
    20     8     9 ar  
    21     9    10 ar  
    22     9    12 1   
    23    12    20 ar  
    24    14    17 ar  
    25    14    24 1   
    26    15    17 ar  
    27    15    18 1   
    28    17    25 1   
    29    19    26 1   
    30    19    27 1   
    31    19    28 1   
    32    20    21 ar  
    33    20    29 1   
    34    21    30 1   
@<TRIPOS>SUBSTRUCTURE
     1 5M8         1 TEMP              0 ****  ****    0 ROOT
