@<TRIPOS>MOLECULE
5M9
   47    50     1     0     0
SMALL
bcc


@<TRIPOS>ATOM
      1 C01         -5.5530     0.0630    -0.1140 cc         1 5M9      -0.026600
      2 C02         -5.2950     1.3950     0.2840 cc         1 5M9      -0.102000
      3 C04         -4.5530    -0.8040    -0.4550 cd         1 5M9       0.024400
      4 C06         -2.9870     0.9970    -0.0020 cd         1 5M9      -0.006300
      5 N09         -2.1720    -0.9510    -0.6650 nd         1 5M9      -0.601100
      6 C11          1.0030    -0.1340     0.6650 c3         1 5M9      -0.108700
      7 C18          6.9260    -0.5020    -0.2340 c5         1 5M9       0.244300
      8 C19          8.0190     0.5600    -0.2850 c5         1 5M9      -0.096400
      9 C20          7.3300     1.7310    -0.9830 c5         1 5M9      -0.096400
     10 C21          5.9080     1.6920    -0.4270 c5         1 5M9       0.244300
     11 C22          2.3820    -2.9190     0.7340 c3         1 5M9       0.047600
     12 C23         -4.6780    -2.2190    -0.8870 c3         1 5M9      -0.047800
     13 C03         -4.0220     1.8880     0.3490 cd         1 5M9      -0.044300
     14 N05         -3.2950    -0.2800    -0.3800 na         1 5M9       0.191000
     15 N07         -1.6720     1.1520    -0.0460 nc         1 5M9      -0.395300
     16 C08         -1.2300    -0.0490    -0.4510 cc         1 5M9       0.530300
     17 C12          2.4520    -0.4200     0.4900 cc         1 5M9       0.450800
     18 N13          3.3840     0.4830     0.2450 nd         1 5M9      -0.751000
     19 C14          4.5120    -0.2590     0.1310 cd         1 5M9       0.810900
     20 N15          4.3290    -1.5570     0.2880 nc         1 5M9      -0.618800
     21 N16          2.9980    -1.6350     0.5220 na         1 5M9      -0.034400
     22 N17          5.7210     0.2900    -0.1030 nh         1 5M9      -0.801300
     23 CL1         -7.2030    -0.4520    -0.1590 cl         1 5M9      -0.079400
     24 H1          -6.1300     2.0330     0.5410 ha         1 5M9       0.158000
     25 H2           0.6250     0.2780    -1.4190 hc         1 5M9       0.070200
     26 H3           0.3150    -1.3900    -0.9730 hc         1 5M9       0.070200
     27 H4           0.8990     0.9040     0.9790 hc         1 5M9       0.075200
     28 H5           0.5860    -0.7500     1.4640 hc         1 5M9       0.075200
     29 H6           6.9150    -1.1080    -1.1490 h1         1 5M9       0.048200
     30 H7           7.0440    -1.1890     0.6070 h1         1 5M9       0.048200
     31 H8           8.3130     0.8430     0.7280 hc         1 5M9       0.050950
     32 H9           8.9110     0.2130    -0.8060 hc         1 5M9       0.050950
     33 H10          7.8170     2.6880    -0.7990 hc         1 5M9       0.050950
     34 H11          7.3160     1.5670    -2.0620 hc         1 5M9       0.050950
     35 H12          5.8130     2.3230     0.4640 h1         1 5M9       0.048200
     36 H13          5.1710     2.0430    -1.1530 h1         1 5M9       0.048200
     37 H14          2.8830    -3.4420     1.5470 h1         1 5M9       0.054367
     38 H15          1.3370    -2.7860     1.0000 h1         1 5M9       0.054367
     39 H16          2.4400    -3.5250    -0.1680 h1         1 5M9       0.054367
     40 H17         -5.7150    -2.5400    -0.8840 hc         1 5M9       0.068700
     41 H18         -4.2810    -2.3500    -1.8950 hc         1 5M9       0.068700
     42 H19         -4.1110    -2.8750    -0.2270 hc         1 5M9       0.068700
     43 H20         -3.1830     3.8190    -0.0420 hc         1 5M9       0.056367
     44 H21         -4.5900     3.8370     1.0240 hc         1 5M9       0.056367
     45 H22         -3.0220     3.2880     1.6230 hc         1 5M9       0.056367
     46 C10          0.2140    -0.3590    -0.6320 c3         1 5M9      -0.079700
     47 C24         -3.6910     3.2840     0.7610 c3         1 5M9      -0.037800
@<TRIPOS>BOND
     1     1     2 1   
     2     1     3 2   
     3     1    23 1   
     4     2    13 2   
     5     2    24 1   
     6     3    12 1   
     7     3    14 1   
     8     4    13 1   
     9     4    14 1   
    10     4    15 2   
    11     5    14 1   
    12     5    16 2   
    13     6    17 1   
    14     6    27 1   
    15     6    28 1   
    16     6    46 1   
    17     7     8 1   
    18     7    22 1   
    19     7    29 1   
    20     7    30 1   
    21     8     9 1   
    22     8    31 1   
    23     8    32 1   
    24     9    10 1   
    25     9    33 1   
    26     9    34 1   
    27    10    22 1   
    28    10    35 1   
    29    10    36 1   
    30    11    21 1   
    31    11    37 1   
    32    11    38 1   
    33    11    39 1   
    34    12    40 1   
    35    12    41 1   
    36    12    42 1   
    37    13    47 1   
    38    15    16 1   
    39    16    46 1   
    40    17    18 2   
    41    17    21 1   
    42    18    19 1   
    43    19    20 2   
    44    19    22 1   
    45    20    21 1   
    46    25    46 1   
    47    26    46 1   
    48    43    47 1   
    49    44    47 1   
    50    45    47 1   
@<TRIPOS>SUBSTRUCTURE
     1 5M9         1 TEMP              0 ****  ****    0 ROOT
