@<TRIPOS>MOLECULE
5M9
   47    50     1     0     0
SMALL
No Charge or Current Charge


@<TRIPOS>ATOM
      1 C01         -5.5420     0.0860     0.2500 cc         1 5M9       0.065000
      2 C02         -5.3160     1.5130     0.2730 cc         1 5M9      -0.084000
      3 C04         -4.5270    -0.8440     0.0160 cd         1 5M9      -0.026300
      4 C06         -3.0440     1.0940    -0.1570 cd         1 5M9      -0.057000
      5 N09         -2.1280    -0.9780    -0.4000 nd         1 5M9      -0.601100
      6 C11          1.0090    -0.3890     0.5490 c3         1 5M9      -0.108700
      7 C18          7.0180    -0.4740    -0.3600 c5         1 5M9       0.244300
      8 C19          8.0480     0.6310    -0.0100 c5         1 5M9      -0.096400
      9 C20          7.3360     1.8990    -0.5540 c5         1 5M9      -0.096400
     10 C21          5.8990     1.7060    -0.0040 c5         1 5M9       0.244300
     11 C22          2.4190    -3.1740    -0.0100 c3         1 5M9       0.076900
     12 C23         -4.6960    -2.3520    -0.0190 c3         1 5M9      -0.047800
     13 C03         -4.0680     2.0630     0.0690 cd         1 5M9      -0.044300
     14 N05         -3.2640    -0.2610    -0.1800 na         1 5M9       0.292400
     15 N07         -1.7640     1.3050    -0.3680 nc         1 5M9      -0.395300
     16 C08         -1.2730     0.0300    -0.5070 cc         1 5M9       0.530300
     17 C12          2.4740    -0.6260     0.2990 cc         1 5M9       0.450800
     18 N13          3.3990     0.3110     0.2630 nd         1 5M9      -0.751000
     19 C14          4.5310    -0.4060    -0.0050 cd         1 5M9       0.810900
     20 N15          4.4050    -1.7090    -0.1440 nc         1 5M9      -0.618800
     21 N16          3.0670    -1.8520     0.0520 na         1 5M9      -0.063700
     22 N17          5.7420     0.2390    -0.1210 nh         1 5M9      -0.801300
     23 Cl1         -7.1820    -0.4230     0.5430 cl         1 5M9      -0.171000
     24 H1          -6.1680     2.1580     0.4610 ha         1 5M9       0.140000
     25 H2           0.6030     0.6770    -1.2990 hc         1 5M9       0.070200
     26 H3           0.3280    -1.0520    -1.4060 hc         1 5M9       0.070200
     27 H4           0.8910     0.4930     1.1900 hc         1 5M9       0.075200
     28 H5           0.5900    -1.2330     1.1100 hc         1 5M9       0.075200
     29 H6           7.1020    -0.7870    -1.4100 h1         1 5M9       0.048200
     30 H7           7.1390    -1.3600     0.2790 h1         1 5M9       0.048200
     31 H8           8.2070     0.6970     1.0730 hc         1 5M9       0.050950
     32 H9           9.0230     0.4550    -0.4780 hc         1 5M9       0.050950
     33 H10          7.7960     2.8300    -0.2040 hc         1 5M9       0.050950
     34 H11          7.3410     1.9200    -1.6510 hc         1 5M9       0.050950
     35 H12          5.8230     2.0270     1.0450 h1         1 5M9       0.048200
     36 H13          5.1600     2.2650    -0.5940 h1         1 5M9       0.048200
     37 H14          2.0060    -3.4270     0.9740 h1         1 5M9       0.054367
     38 H15          1.6080    -3.1540    -0.7490 h1         1 5M9       0.054367
     39 H16          3.1490    -3.9400    -0.3010 h1         1 5M9       0.054367
     40 H17         -5.7290    -2.6490    -0.2250 hc         1 5M9       0.068700
     41 H18         -4.0770    -2.8090    -0.7990 hc         1 5M9       0.068700
     42 H19         -4.4060    -2.7970     0.9400 hc         1 5M9       0.068700
     43 H20         -3.3660     3.8780    -0.8650 hc         1 5M9       0.056367
     44 H21         -4.7070     4.1260     0.2630 hc         1 5M9       0.056367
     45 H22         -3.0810     3.8020     0.8820 hc         1 5M9       0.056367
     46 C10          0.1960    -0.1820    -0.7530 c3         1 5M9      -0.079700
     47 C24         -3.7930     3.5470     0.0890 c3         1 5M9      -0.037800
@<TRIPOS>BOND
     1     1     2 1   
     2     1     3 2   
     3     1    23 1   
     4     2    13 2   
     5     2    24 1   
     6     3    12 1   
     7     3    14 1   
     8     4    13 1   
     9     4    14 1   
    10     4    15 2   
    11     5    14 1   
    12     5    16 2   
    13     6    17 1   
    14     6    27 1   
    15     6    28 1   
    16     6    46 1   
    17     7     8 1   
    18     7    22 1   
    19     7    29 1   
    20     7    30 1   
    21     8     9 1   
    22     8    31 1   
    23     8    32 1   
    24     9    10 1   
    25     9    33 1   
    26     9    34 1   
    27    10    22 1   
    28    10    35 1   
    29    10    36 1   
    30    11    21 1   
    31    11    37 1   
    32    11    38 1   
    33    11    39 1   
    34    12    40 1   
    35    12    41 1   
    36    12    42 1   
    37    13    47 1   
    38    15    16 1   
    39    16    46 1   
    40    17    18 2   
    41    17    21 1   
    42    18    19 1   
    43    19    20 2   
    44    19    22 1   
    45    20    21 1   
    46    25    46 1   
    47    26    46 1   
    48    43    47 1   
    49    44    47 1   
    50    45    47 1   
@<TRIPOS>SUBSTRUCTURE
     1 5M9         1 TEMP              0 ****  ****    0 ROOT
