@<TRIPOS>MOLECULE
5MA
   45    49     1     0     0
SMALL
abcg2


@<TRIPOS>ATOM
      1 C           11.2040    11.9290    16.0550 ca         1 5MA       0.080000
      2 N            7.1890    12.3630    15.5860 na         1 5MA       0.055600
      3 O           10.7580    11.7340    18.3970 os         1 5MA      -0.214200
      4 C1          10.7650    12.0600    14.7180 ca         1 5MA      -0.051000
      5 CL1         12.9070    11.7480    16.3630 cl         1 5MA      -0.165000
      6 C2           9.4330    12.2210    14.4070 ca         1 5MA      -0.110000
      7 CL2          9.8980    16.6120    19.6790 cl         1 5MA      -0.199000
      8 C3           8.5410    12.2380    15.4840 ca         1 5MA      -0.055200
      9 CL3         10.6740    10.5660    21.0240 cl         1 5MA      -0.182000
     10 C4           8.9590    12.0950    16.8150 ca         1 5MA      -0.011600
     11 C5          10.3220    11.9420    17.1180 ca         1 5MA       0.190100
     12 C6          10.3420    14.0250    19.0370 ca         1 5MA      -0.147000
     13 C7          10.5050    12.6840    19.3550 ca         1 5MA       0.148100
     14 C8          10.4590    12.2620    20.6840 ca         1 5MA       0.111000
     15 C9          10.2390    13.1730    21.7170 ca         1 5MA      -0.032300
     16 C10         10.0650    14.5170    21.3910 ca         1 5MA      -0.101000
     17 C11         10.1180    14.9230    20.0670 ca         1 5MA       0.151000
     18 N12          6.8100    12.2880    16.8770 nc         1 5MA      -0.155400
     19 N13          7.8540    12.1330    17.6270 nd         1 5MA      -0.194400
     20 C14          6.1970    12.4570    14.5220 c3         1 5MA       0.163800
     21 C15          6.0670    11.1740    13.7750 cc         1 5MA      -0.137300
     22 N16          6.3460    11.0580    12.4650 na         1 5MA       0.016500
     23 N17          6.1900     9.8300    11.9450 nc         1 5MA      -0.236400
     24 C18          5.7900     9.0930    12.9980 ca         1 5MA       0.224000
     25 C19          5.6930     9.8900    14.1840 ca         1 5MA      -0.157000
     26 N20          5.5150     7.7700    12.9460 nb         1 5MA      -0.627000
     27 C21          5.1410     7.2320    14.0900 ca         1 5MA       0.365900
     28 C22          5.0160     7.9310    15.3200 ca         1 5MA      -0.181000
     29 C23          5.2920     9.2740    15.3830 ca         1 5MA      -0.015000
     30 C24         10.1980    12.7440    23.1620 c3         1 5MA       0.194100
     31 N26         11.5590    12.5850    23.7030 n8         1 5MA      -0.994200
     32 H1          11.5060    12.0380    13.9320 ha         1 5MA       0.139000
     33 H2           9.1040    12.3230    13.3830 ha         1 5MA       0.128000
     34 H6          10.3880    14.3540    18.0090 ha         1 5MA       0.141000
     35 H10          9.8870    15.2390    22.1760 ha         1 5MA       0.138000
     36 H14          5.2590    12.7270    15.0050 h1         1 5MA       0.085200
     37 H14A         6.4810    13.2650    13.8460 h1         1 5MA       0.085200
     38 H21          4.9170     6.1700    14.0710 h4         1 5MA       0.023100
     39 H22          4.7010     7.3850    16.1990 ha         1 5MA       0.127000
     40 H23          5.2060     9.8310    16.3070 ha         1 5MA       0.133000
     41 H24          9.7000    13.5230    23.7380 h1         1 5MA       0.045700
     42 H24A         9.5940    11.8340    23.2480 h1         1 5MA       0.045700
     43 HN26        11.4960    12.3860    24.6960 hn         1 5MA       0.399500
     44 HN2A        12.0010    11.7730    23.2840 hn         1 5MA       0.399500
     45 HN16         6.6520    11.8090    11.8600 hn         1 5MA       0.373000
@<TRIPOS>BOND
     1     1     4 ar  
     2     1     5 1   
     3     1    11 ar  
     4     2     8 1   
     5     2    18 1   
     6     2    20 1   
     7     3    11 1   
     8     3    13 1   
     9     4     6 ar  
    10     4    32 1   
    11     6     8 ar  
    12     6    33 1   
    13     7    17 1   
    14     8    10 ar  
    15     9    14 1   
    16    10    11 ar  
    17    10    19 1   
    18    12    13 ar  
    19    12    17 ar  
    20    12    34 1   
    21    13    14 ar  
    22    14    15 ar  
    23    15    16 ar  
    24    15    30 1   
    25    16    17 ar  
    26    16    35 1   
    27    18    19 2   
    28    20    21 1   
    29    20    36 1   
    30    20    37 1   
    31    21    22 1   
    32    21    25 2   
    33    22    23 1   
    34    22    45 1   
    35    23    24 2   
    36    24    25 ar  
    37    24    26 ar  
    38    25    29 ar  
    39    26    27 ar  
    40    27    28 ar  
    41    27    38 1   
    42    28    29 ar  
    43    28    39 1   
    44    29    40 1   
    45    30    31 1   
    46    30    41 1   
    47    30    42 1   
    48    31    43 1   
    49    31    44 1   
@<TRIPOS>SUBSTRUCTURE
     1 5MA         1 TEMP              0 ****  ****    0 ROOT
