@<TRIPOS>MOLECULE
5MA
   45    49     1     0     0
SMALL
No Charge or Current Charge


@<TRIPOS>ATOM
      1 C           11.0180    11.4400    15.9730 ca         1 5MA       0.080000
      2 N            7.0290    12.4300    15.7830 na         1 5MA       0.055600
      3 O           10.7390    11.6030    18.3750 os         1 5MA      -0.214200
      4 C1          10.4760    11.5330    14.6690 ca         1 5MA      -0.051000
      5 Cl1         12.7190    11.0150    16.1680 cl         1 5MA      -0.165000
      6 C2           9.1200    11.8740    14.4850 ca         1 5MA      -0.110000
      7 Cl2         10.3630    16.6230    19.4780 cl         1 5MA      -0.199000
      8 C3           8.3470    12.1070    15.6330 ca         1 5MA      -0.055200
      9 Cl3         10.4190    10.4960    21.1180 cl         1 5MA      -0.182000
     10 C4           8.8530    12.0250    16.8920 ca         1 5MA      -0.011600
     11 C5          10.2080    11.6970    17.1050 ca         1 5MA       0.190100
     12 C6          10.5540    13.9410    18.9610 ca         1 5MA      -0.147000
     13 C7          10.5560    12.5820    19.3280 ca         1 5MA       0.148100
     14 C8          10.3930    12.2120    20.6810 ca         1 5MA       0.111000
     15 C9          10.2070    13.2090    21.6700 ca         1 5MA      -0.032300
     16 C10         10.1980    14.5660    21.2840 ca         1 5MA      -0.101000
     17 C11         10.3720    14.9260    19.9390 ca         1 5MA       0.151000
     18 N12          6.7360    12.5440    17.1330 nc         1 5MA      -0.155400
     19 N13          7.8510    12.2950    17.8190 nd         1 5MA      -0.194400
     20 C14          6.0410    12.5950    14.7020 c3         1 5MA       0.163800
     21 C15          5.9310    11.4010    13.7790 cc         1 5MA      -0.137300
     22 N16          5.9050    11.4720    12.3930 na         1 5MA       0.016500
     23 N17          5.8320    10.2060    11.8020 nc         1 5MA      -0.236400
     24 C18          5.8070     9.3320    12.8970 ca         1 5MA       0.224000
     25 C19          5.8610    10.0160    14.0980 ca         1 5MA      -0.157000
     26 N20          5.7390     7.9860    12.8570 nb         1 5MA      -0.627000
     27 C21          5.7240     7.3170    14.0400 ca         1 5MA       0.365900
     28 C22          5.7730     7.9610    15.2940 ca         1 5MA      -0.181000
     29 C23          5.8430     9.3630    15.3380 ca         1 5MA      -0.015000
     30 C24         10.0160    12.8550    23.1430 c3         1 5MA       0.194100
     31 N26         11.3070    12.7180    23.8500 n8         1 5MA      -0.994200
     32 H1          11.1080    11.3390    13.8060 ha         1 5MA       0.139000
     33 H2           8.6950    11.9450    13.4860 ha         1 5MA       0.128000
     34 H6          10.6940    14.2350    17.9240 ha         1 5MA       0.141000
     35 H10         10.0620    15.3430    22.0310 ha         1 5MA       0.138000
     36 H14          5.0600    12.7860    15.1530 h1         1 5MA       0.085200
     37 H14A         6.3180    13.4860    14.1250 h1         1 5MA       0.085200
     38 H21          5.6690     6.2300    13.9800 h4         1 5MA       0.023100
     39 H22          5.7560     7.3750    16.2090 ha         1 5MA       0.127000
     40 H23          5.8800     9.9020    16.2810 ha         1 5MA       0.133000
     41 H24          9.4320    13.6460    23.6350 h1         1 5MA       0.045700
     42 H24A         9.4470    11.9210    23.2420 h1         1 5MA       0.045700
     43 HN26        11.1270    12.4250    24.8180 hn         1 5MA       0.399500
     44 HN2A        11.8180    11.9230    23.4480 hn         1 5MA       0.399500
     45 HN16         5.9350    12.3120    11.8200 hn         1 5MA       0.373000
@<TRIPOS>BOND
     1     1     4 ar  
     2     1     5 1   
     3     1    11 ar  
     4     2     8 1   
     5     2    18 1   
     6     2    20 1   
     7     3    11 1   
     8     3    13 1   
     9     4     6 ar  
    10     4    32 1   
    11     6     8 ar  
    12     6    33 1   
    13     7    17 1   
    14     8    10 ar  
    15     9    14 1   
    16    10    11 ar  
    17    10    19 1   
    18    12    13 ar  
    19    12    17 ar  
    20    12    34 1   
    21    13    14 ar  
    22    14    15 ar  
    23    15    16 ar  
    24    15    30 1   
    25    16    17 ar  
    26    16    35 1   
    27    18    19 2   
    28    20    21 1   
    29    20    36 1   
    30    20    37 1   
    31    21    22 1   
    32    21    25 2   
    33    22    23 1   
    34    22    45 1   
    35    23    24 2   
    36    24    25 ar  
    37    24    26 ar  
    38    25    29 ar  
    39    26    27 ar  
    40    27    28 ar  
    41    27    38 1   
    42    28    29 ar  
    43    28    39 1   
    44    29    40 1   
    45    30    31 1   
    46    30    41 1   
    47    30    42 1   
    48    31    43 1   
    49    31    44 1   
@<TRIPOS>SUBSTRUCTURE
     1 5MA         1 TEMP              0 ****  ****    0 ROOT
