@<TRIPOS>MOLECULE
5MB
   18    19     1     0     0
SMALL
No Charge or Current Charge


@<TRIPOS>ATOM
      1 N3          -1.2960    -0.0680    -1.6770 na         1 5MB      -0.318600
      2 N1           0.9500     0.1140    -2.1550 nc         1 5MB      -0.572100
      3 C2          -0.2980     0.0130    -2.6600 cd         1 5MB       0.411700
      4 C7A          0.7270     0.0960    -0.7890 ca         1 5MB       0.061400
      5 C3A         -0.6020    -0.0120    -0.5020 ca         1 5MB      -0.079200
      6 C4          -1.0920    -0.0520     0.8100 ca         1 5MB      -0.116000
      7 C5          -0.1620     0.0250     1.8690 ca         1 5MB      -0.057300
      8 C6           1.2210     0.1350     1.5790 ca         1 5MB      -0.136000
      9 C7           1.6740     0.1720     0.2420 ca         1 5MB      -0.044000
     10 C8          -0.6390    -0.0180     3.3120 c3         1 5MB      -0.046800
     11 HN31        -2.2940    -0.1490    -1.8260 hn         1 5MB       0.356000
     12 H21         -0.5520    -0.0080    -3.7140 h5         1 5MB       0.060800
     13 H41         -2.1590    -0.1400     1.0040 ha         1 5MB       0.115000
     14 H61          1.9430     0.1910     2.3900 ha         1 5MB       0.112000
     15 H71          2.7340     0.2570     0.0160 ha         1 5MB       0.128000
     16 H81          0.0080     0.5800     3.9650 hc         1 5MB       0.042367
     17 H82         -1.6580     0.3760     3.4090 hc         1 5MB       0.042367
     18 H83         -0.6400    -1.0460     3.6920 hc         1 5MB       0.042367
@<TRIPOS>BOND
     1     1     3 1   
     2     1     5 1   
     3     1    11 1   
     4     2     3 2   
     5     2     4 1   
     6     3    12 1   
     7     4     5 ar  
     8     4     9 ar  
     9     5     6 ar  
    10     6     7 ar  
    11     6    13 1   
    12     7     8 ar  
    13     7    10 1   
    14     8     9 ar  
    15     8    14 1   
    16     9    15 1   
    17    10    16 1   
    18    10    17 1   
    19    10    18 1   
@<TRIPOS>SUBSTRUCTURE
     1 5MB         1 TEMP              0 ****  ****    0 ROOT
