@<TRIPOS>MOLECULE
5MB
   18    19     1     0     0
SMALL
abcg2


@<TRIPOS>ATOM
      1 N3          -1.2600    -0.0150    -1.6940 na         1 5MB      -0.318600
      2 N1           0.9120     0.0810    -2.1480 nc         1 5MB      -0.572100
      3 C2          -0.2920     0.0310    -2.6410 cd         1 5MB       0.411700
      4 C7A          0.7320     0.0680    -0.7840 ca         1 5MB       0.061400
      5 C3A         -0.6350     0.0080    -0.4770 ca         1 5MB      -0.079200
      6 C4          -1.1140    -0.0170     0.8300 ca         1 5MB      -0.116000
      7 C5          -0.1830     0.0200     1.8560 ca         1 5MB      -0.057300
      8 C6           1.1930     0.0820     1.5520 ca         1 5MB      -0.136000
      9 C7           1.6640     0.1060     0.2550 ca         1 5MB      -0.044000
     10 C8          -0.6220    -0.0110     3.2930 c3         1 5MB      -0.046800
     11 HN31        -2.2520    -0.0540    -1.8670 hn         1 5MB       0.356000
     12 H21         -0.5370     0.0240    -3.6930 h5         1 5MB       0.060800
     13 H41         -2.1750    -0.0640     1.0400 ha         1 5MB       0.115000
     14 H61          1.9040     0.1110     2.3700 ha         1 5MB       0.112000
     15 H71          2.7260     0.1540     0.0480 ha         1 5MB       0.128000
     16 H81         -0.2420     0.8520     3.8430 hc         1 5MB       0.042367
     17 H82         -1.7080    -0.0090     3.3810 hc         1 5MB       0.042367
     18 H83         -0.2490    -0.9020     3.8020 hc         1 5MB       0.042367
@<TRIPOS>BOND
     1     1     3 1   
     2     1     5 1   
     3     1    11 1   
     4     2     3 2   
     5     2     4 1   
     6     3    12 1   
     7     4     5 ar  
     8     4     9 ar  
     9     5     6 ar  
    10     6     7 ar  
    11     6    13 1   
    12     7     8 ar  
    13     7    10 1   
    14     8     9 ar  
    15     8    14 1   
    16     9    15 1   
    17    10    16 1   
    18    10    17 1   
    19    10    18 1   
@<TRIPOS>SUBSTRUCTURE
     1 5MB         1 TEMP              0 ****  ****    0 ROOT
