@<TRIPOS>MOLECULE
5MC
   36    37     1     0     0
SMALL
No Charge or Current Charge


@<TRIPOS>ATOM
      1 P            0.3270    -0.9760    -4.1360 p5         1 5MC       1.272900
      2 OP1         -0.6680    -0.4430    -5.1050 o          1 5MC      -0.925833
      3 OP2          1.5240    -1.4480    -4.8840 o          1 5MC      -0.925833
      4 OP3         -0.2520    -2.1190    -3.3820 o          1 5MC      -0.925833
      5 O5           0.7880     0.2010    -3.1360 os         1 5MC      -0.569400
      6 C5          -0.1620     0.9990    -2.4000 c3         1 5MC       0.254600
      7 C4          -0.8490     0.2040    -1.2500 c5         1 5MC       0.157300
      8 O4           0.1130    -0.2100    -0.2560 os         1 5MC      -0.401000
      9 C3          -1.8500     1.0450    -0.3960 c5         1 5MC       0.090300
     10 O3          -3.1170     1.2960    -1.0450 oh         1 5MC      -0.709000
     11 C2          -2.0410     0.1090     0.8400 c5         1 5MC       0.095300
     12 O2          -3.1310    -0.7780     0.5560 oh         1 5MC      -0.743000
     13 C1          -0.6400    -0.6170     0.9030 c5         1 5MC       0.321700
     14 N1           0.0070    -0.2650     2.1970 n          1 5MC      -0.299000
     15 C9           0.6910     0.9580     2.3610 c          1 5MC       0.714400
     16 O1           0.7320     1.8250     1.5050 o          1 5MC      -0.521000
     17 N3           1.3110     1.1890     3.5590 nc         1 5MC      -0.776100
     18 C8           1.2500     0.3180     4.5080 cd         1 5MC       0.784500
     19 N4           1.9050     0.6820     5.5970 nv         1 5MC      -1.054200
     20 C7           0.5690    -0.9340     4.4400 cd         1 5MC      -0.414800
     21 C6          -0.0560    -1.1870     3.2380 cc         1 5MC       0.049600
     22 CM5          0.5250    -1.9190     5.5880 c3         1 5MC      -0.008900
     23 H5          -0.9380     1.3850    -3.0740 h1         1 5MC       0.013200
     24 H5'          0.3470     1.8700    -1.9660 h1         1 5MC       0.013200
     25 H4          -1.3540    -0.6810    -1.6560 h1         1 5MC       0.064700
     26 H3          -1.3790     1.9890    -0.0820 h1         1 5MC       0.087700
     27 HO3         -3.0350     2.1380    -1.5520 ho         1 5MC       0.489000
     28 H2          -2.2490     0.6920     1.7480 h1         1 5MC       0.046700
     29 HO2         -3.6090    -0.2790    -0.1600 ho         1 5MC       0.522000
     30 H1          -0.7720    -1.7050     0.8880 h2         1 5MC       0.048700
     31 HN41         2.5670     1.4280     5.4340 hn         1 5MC       0.488500
     32 HN42         2.2170    -0.0710     6.1930 hn         1 5MC       0.488500
     33 H6          -0.6250    -2.0820     2.9970 h4         1 5MC       0.196000
     34 HM51         1.5280    -2.2920     5.8280 hc         1 5MC       0.024700
     35 HM52         0.1100    -1.4570     6.4920 hc         1 5MC       0.024700
     36 HM53        -0.1000    -2.7880     5.3490 hc         1 5MC       0.024700
@<TRIPOS>BOND
     1     1     2 1   
     2     1     3 1   
     3     1     4 1   
     4     1     5 1   
     5     5     6 1   
     6     6     7 1   
     7     6    23 1   
     8     6    24 1   
     9     7     8 1   
    10     7     9 1   
    11     7    25 1   
    12     8    13 1   
    13     9    10 1   
    14     9    11 1   
    15     9    26 1   
    16    10    27 1   
    17    11    12 1   
    18    11    13 1   
    19    11    28 1   
    20    12    29 1   
    21    13    14 1   
    22    13    30 1   
    23    14    15 1   
    24    14    21 1   
    25    15    16 2   
    26    15    17 1   
    27    17    18 2   
    28    18    19 1   
    29    18    20 1   
    30    19    31 1   
    31    19    32 1   
    32    20    21 2   
    33    20    22 1   
    34    21    33 1   
    35    22    34 1   
    36    22    35 1   
    37    22    36 1   
@<TRIPOS>SUBSTRUCTURE
     1 5MC         1 TEMP              0 ****  ****    0 ROOT
