@<TRIPOS>MOLECULE
5MC
   36    37     1     0     0
SMALL
abcg2


@<TRIPOS>ATOM
      1 P            1.2040    -0.3550    -4.1550 p5         1 5MC       1.272900
      2 OP1          1.9660     0.9430    -3.9090 o          1 5MC      -0.925833
      3 OP2          2.0720    -1.5940    -4.3330 o          1 5MC      -0.925833
      4 OP3          0.0560    -0.2240    -5.1500 o          1 5MC      -0.925833
      5 O5           0.4480    -0.7110    -2.6640 os         1 5MC      -0.569400
      6 C5          -0.3410     0.2900    -2.1020 c3         1 5MC       0.254600
      7 C4          -1.2830    -0.2960    -1.0760 c5         1 5MC       0.157300
      8 O4          -0.5450    -0.8260     0.0150 os         1 5MC      -0.401000
      9 C3          -2.2280     0.7370    -0.4670 c5         1 5MC       0.090300
     10 O3          -3.4050     0.8260    -1.2350 oh         1 5MC      -0.709000
     11 C2          -2.4850     0.1820     0.9460 c5         1 5MC       0.095300
     12 O2          -3.6170    -0.6530     0.9430 oh         1 5MC      -0.743000
     13 C1          -1.2550    -0.7020     1.2130 c5         1 5MC       0.321700
     14 N1          -0.3530    -0.2610     2.2650 n          1 5MC      -0.299000
     15 C9           0.2250     1.0130     2.2240 c          1 5MC       0.714400
     16 O1          -0.0880     1.7890     1.3300 o          1 5MC      -0.521000
     17 N3           1.1070     1.3390     3.1890 nc         1 5MC      -0.776100
     18 C8           1.4270     0.4880     4.1430 cd         1 5MC       0.784500
     19 N4           2.3080     0.8840     5.0620 nv         1 5MC      -1.054200
     20 C7           0.8670    -0.8330     4.2260 cd         1 5MC      -0.414800
     21 C6          -0.0110    -1.1360     3.2470 cc         1 5MC       0.049600
     22 CM5          1.2400    -1.7940     5.3080 c3         1 5MC      -0.008900
     23 H5          -0.9620     0.8000    -2.8540 h1         1 5MC       0.013200
     24 H5'          0.2630     1.0670    -1.6120 h1         1 5MC       0.013200
     25 H4          -1.8820    -1.0930    -1.5430 h1         1 5MC       0.064700
     26 H3          -1.7320     1.7060    -0.3960 h1         1 5MC       0.087700
     27 HO3         -3.7650     1.7140    -1.1460 ho         1 5MC       0.489000
     28 H2          -2.5910     0.9750     1.6940 h1         1 5MC       0.046700
     29 HO2         -4.1900    -0.3340     0.2320 ho         1 5MC       0.522000
     30 H1          -1.6200    -1.6800     1.5450 h2         1 5MC       0.048700
     31 HN41         2.7140     1.8020     5.0030 hn         1 5MC       0.488500
     32 HN42         2.6140     0.2830     5.8060 hn         1 5MC       0.488500
     33 H6          -0.4890    -2.1060     3.2070 h4         1 5MC       0.196000
     34 HM51         2.3090    -2.0170     5.3010 hc         1 5MC       0.024700
     35 HM52         0.9930    -1.4070     6.2990 hc         1 5MC       0.024700
     36 HM53         0.7100    -2.7380     5.1860 hc         1 5MC       0.024700
@<TRIPOS>BOND
     1     1     2 1   
     2     1     3 1   
     3     1     4 1   
     4     1     5 1   
     5     5     6 1   
     6     6     7 1   
     7     6    23 1   
     8     6    24 1   
     9     7     8 1   
    10     7     9 1   
    11     7    25 1   
    12     8    13 1   
    13     9    10 1   
    14     9    11 1   
    15     9    26 1   
    16    10    27 1   
    17    11    12 1   
    18    11    13 1   
    19    11    28 1   
    20    12    29 1   
    21    13    14 1   
    22    13    30 1   
    23    14    15 1   
    24    14    21 1   
    25    15    16 2   
    26    15    17 1   
    27    17    18 2   
    28    18    19 1   
    29    18    20 1   
    30    19    31 1   
    31    19    32 1   
    32    20    21 2   
    33    20    22 1   
    34    21    33 1   
    35    22    34 1   
    36    22    35 1   
    37    22    36 1   
@<TRIPOS>SUBSTRUCTURE
     1 5MC         1 TEMP              0 ****  ****    0 ROOT
