@<TRIPOS>MOLECULE
5ME
   42    44     1     0     0
SMALL
abcg2


@<TRIPOS>ATOM
      1 CAJ          6.1500    -0.2010    -0.5780 ca         1 5ME      -0.152000
      2 CAF          7.0120     0.8650    -0.7650 ca         1 5ME      -0.067000
      3 CAE          6.5900     2.1390    -0.4110 ca         1 5ME      -0.163000
      4 CAI          5.3170     2.2820     0.1140 ca         1 5ME       0.346900
      5 NAO          4.4870     1.2600     0.2970 nb         1 5ME      -0.691000
      6 CAU          4.8900     0.0420    -0.0400 ca         1 5ME       0.336300
      7 CAY          3.9410    -1.1050     0.2250 c3         1 5ME       0.068400
      8 CAA          4.3020    -1.7920     1.5450 c3         1 5ME      -0.106100
      9 NAQ          2.5830    -0.6130     0.2320 ns         1 5ME      -0.499900
     10 CAS          1.5160    -1.3680    -0.0690 c          1 5ME       0.599100
     11 OAC          1.5990    -2.5530    -0.3660 o          1 5ME      -0.622100
     12 CAM          0.1970    -0.6210    -0.0350 c3         1 5ME      -0.147400
     13 CAN         -0.9940    -1.5580    -0.0300 c3         1 5ME      -0.107700
     14 CAT         -2.3080    -0.8420    -0.0180 cc         1 5ME       0.505900
     15 NAP         -2.3800     0.4380     0.0380 nd         1 5ME      -0.639100
     16 CAW         -3.6290     1.0160     0.0520 ca         1 5ME       0.189400
     17 CAK         -3.7230     2.4130     0.1140 ca         1 5ME      -0.107000
     18 CAG         -4.9570     3.0240     0.1320 ca         1 5ME      -0.075000
     19 CAH         -6.1330     2.2660     0.0900 ca         1 5ME      -0.134000
     20 CAL         -6.0580     0.8910     0.0290 ca         1 5ME      -0.039000
     21 CAX         -4.8110     0.2600     0.0100 ca         1 5ME      -0.204600
     22 CAV         -4.7120    -1.1930    -0.0550 c          1 5ME       0.578600
     23 OAD         -5.6530    -1.9660    -0.0970 o          1 5ME      -0.537000
     24 NAR         -3.4130    -1.6450    -0.0650 ns         1 5ME      -0.431400
     25 H1           6.4440    -1.2070    -0.8490 ha         1 5ME       0.128000
     26 H2           7.9950     0.7060    -1.1880 ha         1 5ME       0.122000
     27 H3           7.2270     3.0030    -0.5430 ha         1 5ME       0.126000
     28 H4           4.9460     3.2600     0.3970 h4         1 5ME       0.020100
     29 H5           4.0430    -1.8310    -0.5850 h1         1 5ME       0.078700
     30 H6           3.6260    -2.6250     1.7350 hc         1 5ME       0.047033
     31 H7           5.3190    -2.1830     1.5140 hc         1 5ME       0.047033
     32 H8           4.2300    -1.0900     2.3760 hc         1 5ME       0.047033
     33 H9           2.4590     0.3580     0.4790 hn         1 5ME       0.341500
     34 H10          0.1700     0.0380     0.8350 hc         1 5ME       0.077200
     35 H11          0.1560     0.0380    -0.9070 hc         1 5ME       0.077200
     36 H12         -0.9680    -2.2170    -0.9020 hc         1 5ME       0.076700
     37 H13         -0.9600    -2.2180     0.8430 hc         1 5ME       0.076700
     38 H15         -2.8120     2.9970     0.1470 ha         1 5ME       0.131000
     39 H16         -5.0190     4.1040     0.1790 ha         1 5ME       0.116000
     40 H17         -7.0950     2.7580     0.1060 ha         1 5ME       0.120000
     41 H18         -6.9590     0.2930    -0.0060 ha         1 5ME       0.135000
     42 H14         -3.2800    -2.6480    -0.1100 hn         1 5ME       0.331500
@<TRIPOS>BOND
     1     1     2 ar  
     2     1     6 ar  
     3     1    25 1   
     4     2     3 ar  
     5     2    26 1   
     6     3     4 ar  
     7     3    27 1   
     8     4     5 ar  
     9     4    28 1   
    10     5     6 ar  
    11     6     7 1   
    12     7     8 1   
    13     7     9 1   
    14     7    29 1   
    15     8    30 1   
    16     8    31 1   
    17     8    32 1   
    18     9    10 1   
    19     9    33 1   
    20    10    11 2   
    21    10    12 1   
    22    12    13 1   
    23    12    34 1   
    24    12    35 1   
    25    13    14 1   
    26    13    36 1   
    27    13    37 1   
    28    14    15 2   
    29    14    24 1   
    30    15    16 1   
    31    16    17 ar  
    32    16    21 ar  
    33    17    18 ar  
    34    17    38 1   
    35    18    19 ar  
    36    18    39 1   
    37    19    20 ar  
    38    19    40 1   
    39    20    21 ar  
    40    20    41 1   
    41    21    22 1   
    42    22    23 2   
    43    22    24 1   
    44    24    42 1   
@<TRIPOS>SUBSTRUCTURE
     1 5ME         1 TEMP              0 ****  ****    0 ROOT
