@<TRIPOS>MOLECULE
5ME
   42    44     1     0     0
SMALL
No Charge or Current Charge


@<TRIPOS>ATOM
      1 CAJ          6.2340    -0.3050    -0.4870 ca         1 5ME      -0.152000
      2 CAF          7.1280     0.7510    -0.7270 ca         1 5ME      -0.067000
      3 CAE          6.6680     2.0630    -0.5300 ca         1 5ME      -0.163000
      4 CAI          5.3450     2.2690    -0.1050 ca         1 5ME       0.346900
      5 NAO          4.4810     1.2530     0.1270 nb         1 5ME      -0.691000
      6 CAU          4.9210    -0.0190    -0.0620 ca         1 5ME       0.336300
      7 CAY          3.9270    -1.1610     0.2110 c3         1 5ME       0.068400
      8 CAA          4.0530    -1.6840     1.6590 c3         1 5ME      -0.106100
      9 NAQ          2.5360    -0.7780    -0.0840 ns         1 5ME      -0.499900
     10 CAS          1.5100    -1.6490    -0.3690 c          1 5ME       0.599100
     11 OAC          1.6780    -2.8580    -0.4390 o          1 5ME      -0.622100
     12 CAM          0.1520    -0.9930    -0.6310 c3         1 5ME      -0.147400
     13 CAN         -0.8290    -1.2180     0.5520 c3         1 5ME      -0.107700
     14 CAT         -2.1750    -0.5750     0.3480 cc         1 5ME       0.505900
     15 NAP         -2.4460     0.6260     0.8580 nd         1 5ME      -0.639100
     16 CAW         -3.7380     1.1000     0.5720 ca         1 5ME       0.189400
     17 CAK         -4.0940     2.3630     1.0810 ca         1 5ME      -0.107000
     18 CAG         -5.3670     2.9080     0.8400 ca         1 5ME      -0.075000
     19 CAH         -6.3030     2.1890     0.0810 ca         1 5ME      -0.134000
     20 CAL         -5.9640     0.9280    -0.4340 ca         1 5ME      -0.039000
     21 CAX         -4.6840     0.3850    -0.1890 ca         1 5ME      -0.204600
     22 CAV         -4.3020    -0.9450    -0.7240 c          1 5ME       0.578600
     23 OAD         -5.0370    -1.6520    -1.3960 o          1 5ME      -0.537000
     24 NAR         -3.0450    -1.3210    -0.4010 ns         1 5ME      -0.431400
     25 H1           6.5530    -1.3350    -0.6250 ha         1 5ME       0.128000
     26 H2           8.1480     0.5590    -1.0550 ha         1 5ME       0.122000
     27 H3           7.3220     2.9130    -0.7030 ha         1 5ME       0.126000
     28 H4           4.9640     3.2770     0.0550 h4         1 5ME       0.020100
     29 H5           4.1900    -1.9860    -0.4640 h1         1 5ME       0.078700
     30 H6           3.3900    -2.5420     1.8250 hc         1 5ME       0.047033
     31 H7           5.0810    -2.0060     1.8630 hc         1 5ME       0.047033
     32 H8           3.7890    -0.9000     2.3780 hc         1 5ME       0.047033
     33 H9           2.3140     0.2110    -0.0700 hn         1 5ME       0.341500
     34 H10          0.2790     0.0870    -0.7750 hc         1 5ME       0.077200
     35 H11         -0.2790    -1.4370    -1.5360 hc         1 5ME       0.077200
     36 H12         -0.9550    -2.2950     0.7240 hc         1 5ME       0.076700
     37 H13         -0.3770    -0.8210     1.4690 hc         1 5ME       0.076700
     38 H15         -3.3750     2.9260     1.6700 ha         1 5ME       0.131000
     39 H16         -5.6260     3.8860     1.2410 ha         1 5ME       0.116000
     40 H17         -7.2890     2.6070    -0.1070 ha         1 5ME       0.120000
     41 H18         -6.6950     0.3750    -1.0220 ha         1 5ME       0.135000
     42 H14         -2.7480    -2.2210    -0.7500 hn         1 5ME       0.331500
@<TRIPOS>BOND
     1     1     2 ar  
     2     1     6 ar  
     3     1    25 1   
     4     2     3 ar  
     5     2    26 1   
     6     3     4 ar  
     7     3    27 1   
     8     4     5 ar  
     9     4    28 1   
    10     5     6 ar  
    11     6     7 1   
    12     7     8 1   
    13     7     9 1   
    14     7    29 1   
    15     8    30 1   
    16     8    31 1   
    17     8    32 1   
    18     9    10 1   
    19     9    33 1   
    20    10    11 2   
    21    10    12 1   
    22    12    13 1   
    23    12    34 1   
    24    12    35 1   
    25    13    14 1   
    26    13    36 1   
    27    13    37 1   
    28    14    15 2   
    29    14    24 1   
    30    15    16 1   
    31    16    17 ar  
    32    16    21 ar  
    33    17    18 ar  
    34    17    38 1   
    35    18    19 ar  
    36    18    39 1   
    37    19    20 ar  
    38    19    40 1   
    39    20    21 ar  
    40    20    41 1   
    41    21    22 1   
    42    22    23 2   
    43    22    24 1   
    44    24    42 1   
@<TRIPOS>SUBSTRUCTURE
     1 5ME         1 TEMP              0 ****  ****    0 ROOT
