@<TRIPOS>MOLECULE
5MF
   49    52     1     0     0
SMALL
No Charge or Current Charge


@<TRIPOS>ATOM
      1 C10          1.6510     0.2720    -0.5360 cc         1 5MF       0.533300
      2 C13         -0.5220    -0.3550     0.6400 c3         1 5MF      -0.108700
      3 C17         -4.0510    -0.4780     0.3190 cc         1 5MF       0.811900
      4 C20         -1.8630    -3.1740    -0.0400 c3         1 5MF       0.075900
      5 C21         -6.4480    -0.5000    -0.1510 c5         1 5MF       0.244800
      6 C22         -7.0950     0.6410    -0.9820 c5         1 5MF      -0.096400
      7 C23         -6.7390     1.8960    -0.1410 c5         1 5MF      -0.096400
      8 C24         -5.2380     1.6450     0.1440 c5         1 5MF       0.244800
      9 C25          5.0050    -2.9430     0.9090 c3         1 5MF      -0.088100
     10 N1           5.7960     1.6010     0.0080 nc         1 5MF      -0.699000
     11 C2           6.0210     0.2270    -0.1020 cc         1 5MF       0.346900
     12 C3           5.0090    -0.7080    -0.2920 cd         1 5MF      -0.101300
     13 C4           4.5330     2.0670    -0.0730 cd         1 5MF       0.572800
     14 C5           4.3050     3.5490     0.0490 c3         1 5MF      -0.145400
     15 C6           5.2790    -2.1910    -0.4070 c3         1 5MF      -0.015100
     16 N7           3.4680     1.1670    -0.2680 na         1 5MF       0.070900
     17 C8           3.6950    -0.1650    -0.3740 cd         1 5MF      -0.038000
     18 N9           2.5440    -0.7730    -0.5480 nc         1 5MF      -0.408300
     19 N11          2.1420     1.4960    -0.3670 nd         1 5MF      -0.580100
     20 C12          0.1800    -0.0010    -0.6940 c3         1 5MF      -0.080700
     21 C14         -1.9880    -0.6540     0.4670 cd         1 5MF       0.450800
     22 N15         -2.5520    -1.8880     0.1630 na         1 5MF      -0.061700
     23 N16         -3.9130    -1.7670     0.0850 nd         1 5MF      -0.618800
     24 N18         -2.9370     0.2480     0.5770 nc         1 5MF      -0.755000
     25 N19         -5.2540     0.1840     0.4210 nh         1 5MF      -0.802300
     26 H1          -0.0210    -1.2150     1.0980 hc         1 5MF       0.075200
     27 H2          -0.3990     0.4790     1.3420 hc         1 5MF       0.075200
     28 H3          -2.5810    -3.9410    -0.3540 h1         1 5MF       0.055700
     29 H4          -1.0950    -3.0630    -0.8140 h1         1 5MF       0.055700
     30 H5          -1.3890    -3.4880     0.8980 h1         1 5MF       0.055700
     31 H6          -7.1190    -0.8370     0.6510 h1         1 5MF       0.047950
     32 H7          -6.2220    -1.3650    -0.7900 h1         1 5MF       0.047950
     33 H8          -6.6520     0.6980    -1.9840 hc         1 5MF       0.051200
     34 H9          -8.1740     0.5040    -1.1080 hc         1 5MF       0.051200
     35 H10         -6.9100     2.8340    -0.6800 hc         1 5MF       0.051200
     36 H11         -7.3210     1.9350     0.7880 hc         1 5MF       0.051200
     37 H12         -4.6230     1.8880    -0.7350 h1         1 5MF       0.047950
     38 H13         -4.8790     2.2360     0.9990 h1         1 5MF       0.047950
     39 H14          5.6380    -2.5550     1.7160 hc         1 5MF       0.040700
     40 H15          3.9560    -2.8310     1.2090 hc         1 5MF       0.040700
     41 H16          5.2160    -4.0120     0.7900 hc         1 5MF       0.040700
     42 H17          7.0610    -0.0620    -0.0250 h4         1 5MF       0.032100
     43 H18          5.2450     4.0910     0.1980 hc         1 5MF       0.073700
     44 H19          3.8280     3.9410    -0.8560 hc         1 5MF       0.073700
     45 H20          3.6500     3.7690     0.9000 hc         1 5MF       0.073700
     46 H21          6.3210    -2.3650    -0.7040 hc         1 5MF       0.055200
     47 H22          4.6600    -2.6250    -1.2010 hc         1 5MF       0.055200
     48 H23         -0.3070     0.8760    -1.1360 hc         1 5MF       0.071200
     49 H24          0.0410    -0.8220    -1.4080 hc         1 5MF       0.071200
@<TRIPOS>BOND
     1     1    18 1   
     2     1    19 2   
     3     1    20 1   
     4     2    20 1   
     5     2    21 1   
     6     2    26 1   
     7     2    27 1   
     8     3    23 2   
     9     3    24 1   
    10     3    25 1   
    11     4    22 1   
    12     4    28 1   
    13     4    29 1   
    14     4    30 1   
    15     5     6 1   
    16     5    25 1   
    17     5    31 1   
    18     5    32 1   
    19     6     7 1   
    20     6    33 1   
    21     6    34 1   
    22     7     8 1   
    23     7    35 1   
    24     7    36 1   
    25     8    25 1   
    26     8    37 1   
    27     8    38 1   
    28     9    15 1   
    29     9    39 1   
    30     9    40 1   
    31     9    41 1   
    32    10    11 1   
    33    10    13 2   
    34    11    12 2   
    35    11    42 1   
    36    12    15 1   
    37    12    17 1   
    38    13    14 1   
    39    13    16 1   
    40    14    43 1   
    41    14    44 1   
    42    14    45 1   
    43    15    46 1   
    44    15    47 1   
    45    16    17 1   
    46    16    19 1   
    47    17    18 2   
    48    20    48 1   
    49    20    49 1   
    50    21    22 1   
    51    21    24 2   
    52    22    23 1   
@<TRIPOS>SUBSTRUCTURE
     1 5MF         1 TEMP              0 ****  ****    0 ROOT
