@<TRIPOS>MOLECULE
5MF
   49    52     1     0     0
SMALL
abcg2


@<TRIPOS>ATOM
      1 C10          1.7650     0.1610    -0.7150 cc         1 5MF       0.533300
      2 C13         -0.4050    -0.5320     0.3030 c3         1 5MF      -0.108700
      3 C17         -3.9330    -0.3790    -0.0560 cc         1 5MF       0.811900
      4 C20         -1.8410    -2.9690    -1.0010 c3         1 5MF       0.075900
      5 C21         -6.3520    -0.3550    -0.4760 c5         1 5MF       0.244800
      6 C22         -7.3430     0.8060    -0.4040 c5         1 5MF      -0.096400
      7 C23         -6.8310     1.6370     0.7700 c5         1 5MF      -0.096400
      8 C24         -5.3150     1.5380     0.6350 c5         1 5MF       0.244800
      9 C25          4.6560    -2.5990     1.7970 c3         1 5MF      -0.088100
     10 N1           5.8360     1.5020    -0.1240 nc         1 5MF      -0.699000
     11 C2           6.0170     0.1840     0.1450 cc         1 5MF       0.346900
     12 C3           5.0320    -0.7630     0.1180 cd         1 5MF      -0.101300
     13 C4           4.6590     1.9380    -0.4400 cd         1 5MF       0.572800
     14 C5           4.3830     3.3620    -0.7520 c3         1 5MF      -0.145400
     15 C6           5.2480    -2.2070     0.4440 c3         1 5MF      -0.015100
     16 N7           3.6220     1.0580    -0.4940 na         1 5MF       0.070900
     17 C8           3.7540    -0.2770    -0.2250 cd         1 5MF      -0.038000
     18 N9           2.5770    -0.8570    -0.3640 nc         1 5MF      -0.408300
     19 N11          2.3480     1.3390    -0.8060 nd         1 5MF      -0.580100
     20 C12          0.3110    -0.0280    -0.9600 c3         1 5MF      -0.080700
     21 C14         -1.8650    -0.7000     0.0770 cd         1 5MF       0.450800
     22 N15         -2.4350    -1.7600    -0.4940 na         1 5MF      -0.061700
     23 N16         -3.7730    -1.5760    -0.5920 nd         1 5MF      -0.618800
     24 N18         -2.7850     0.2010     0.3700 nc         1 5MF      -0.755000
     25 N19         -5.1360     0.2170     0.0660 nh         1 5MF      -0.802300
     26 H1           0.0490    -1.4650     0.6400 hc         1 5MF       0.075200
     27 H2          -0.2760     0.1930     1.1070 hc         1 5MF       0.075200
     28 H3          -2.3080    -3.8360    -0.5380 h1         1 5MF       0.055700
     29 H4          -1.9630    -3.0310    -2.0810 h1         1 5MF       0.055700
     30 H5          -0.7800    -2.9820    -0.7680 h1         1 5MF       0.055700
     31 H6          -6.6900    -1.2100     0.1200 h1         1 5MF       0.047950
     32 H7          -6.2070    -0.7120    -1.4990 h1         1 5MF       0.047950
     33 H8          -7.3030     1.3910    -1.3250 hc         1 5MF       0.051200
     34 H9          -8.3690     0.4640    -0.2730 hc         1 5MF       0.051200
     35 H10         -7.1810     2.6690     0.7540 hc         1 5MF       0.051200
     36 H11         -7.1500     1.1910     1.7150 hc         1 5MF       0.051200
     37 H12         -4.9230     2.3200    -0.0250 h1         1 5MF       0.047950
     38 H13         -4.8030     1.6350     1.5940 h1         1 5MF       0.047950
     39 H14          5.1120    -2.0280     2.6060 hc         1 5MF       0.040700
     40 H15          3.5800    -2.4270     1.8260 hc         1 5MF       0.040700
     41 H16          4.8290    -3.6570     1.9940 hc         1 5MF       0.040700
     42 H17          7.0320    -0.1030     0.3960 h4         1 5MF       0.032100
     43 H18          5.2910     3.9440    -0.6220 hc         1 5MF       0.073700
     44 H19          4.0340     3.4750    -1.7790 hc         1 5MF       0.073700
     45 H20          3.6060     3.7630    -0.1010 hc         1 5MF       0.073700
     46 H21          6.3200    -2.4130     0.4390 hc         1 5MF       0.055200
     47 H22          4.8060    -2.8250    -0.3410 hc         1 5MF       0.055200
     48 H23         -0.1280     0.9150    -1.2850 hc         1 5MF       0.071200
     49 H24          0.1810    -0.7460    -1.7750 hc         1 5MF       0.071200
@<TRIPOS>BOND
     1     1    18 1   
     2     1    19 2   
     3     1    20 1   
     4     2    20 1   
     5     2    21 1   
     6     2    26 1   
     7     2    27 1   
     8     3    23 2   
     9     3    24 1   
    10     3    25 1   
    11     4    22 1   
    12     4    28 1   
    13     4    29 1   
    14     4    30 1   
    15     5     6 1   
    16     5    25 1   
    17     5    31 1   
    18     5    32 1   
    19     6     7 1   
    20     6    33 1   
    21     6    34 1   
    22     7     8 1   
    23     7    35 1   
    24     7    36 1   
    25     8    25 1   
    26     8    37 1   
    27     8    38 1   
    28     9    15 1   
    29     9    39 1   
    30     9    40 1   
    31     9    41 1   
    32    10    11 1   
    33    10    13 2   
    34    11    12 2   
    35    11    42 1   
    36    12    15 1   
    37    12    17 1   
    38    13    14 1   
    39    13    16 1   
    40    14    43 1   
    41    14    44 1   
    42    14    45 1   
    43    15    46 1   
    44    15    47 1   
    45    16    17 1   
    46    16    19 1   
    47    17    18 2   
    48    20    48 1   
    49    20    49 1   
    50    21    22 1   
    51    21    24 2   
    52    22    23 1   
@<TRIPOS>SUBSTRUCTURE
     1 5MF         1 TEMP              0 ****  ****    0 ROOT
