@<TRIPOS>MOLECULE
5MH
   16    16     1     0     0
SMALL
bcc


@<TRIPOS>ATOM
      1 S1           2.5390    -0.4630    -0.0510 s          1 5MH      -0.632400
      2 C1           0.8450    -0.4130    -0.0430 cs         1 5MH       0.386600
      3 C2          -0.0270    -1.5160    -0.0290 cc         1 5MH      -0.190200
      4 C3          -1.3890    -1.3550    -0.0240 cd         1 5MH      -0.051000
      5 C4          -1.9690    -0.0770    -0.0310 cd         1 5MH      -0.145200
      6 C6          -3.4530     0.1350    -0.0210 c3         1 5MH      -0.038900
      7 C5          -1.1100     0.9900    -0.0450 cc         1 5MH       0.005600
      8 N1           0.2200     0.7990    -0.0510 n          1 5MH      -0.064500
      9 O1           0.9690     1.9190    -0.0680 oh         1 5MH      -0.410100
     10 H1           0.4130    -2.5020    -0.0220 ha         1 5MH       0.177000
     11 H2          -2.0280    -2.2290    -0.0150 ha         1 5MH       0.148000
     12 H3          -3.9790    -0.8170    -0.0520 hc         1 5MH       0.050367
     13 H4          -3.7720     0.6620     0.8780 hc         1 5MH       0.050367
     14 H5          -3.7770     0.7230    -0.8800 hc         1 5MH       0.050367
     15 H6          -1.4380     2.0200    -0.0530 h4         1 5MH       0.182000
     16 H7           1.8980     1.5730    -0.0680 ho         1 5MH       0.484000
@<TRIPOS>BOND
     1     1     2 2   
     2     2     3 1   
     3     2     8 1   
     4     3     4 2   
     5     3    10 1   
     6     4     5 1   
     7     4    11 1   
     8     5     6 1   
     9     5     7 2   
    10     6    12 1   
    11     6    13 1   
    12     6    14 1   
    13     7     8 1   
    14     7    15 1   
    15     8     9 1   
    16     9    16 1   
@<TRIPOS>SUBSTRUCTURE
     1 5MH         1 TEMP              0 ****  ****    0 ROOT
