@<TRIPOS>MOLECULE
5MH
   16    16     1     0     0
SMALL
No Charge or Current Charge


@<TRIPOS>ATOM
      1 S1           2.5470    -0.7790    -0.2240 s          1 5MH      -0.632400
      2 C1           0.8900    -0.4990    -0.1630 cs         1 5MH       0.319600
      3 C2          -0.0390    -1.5700     0.0630 cc         1 5MH      -0.240200
      4 C3          -1.4080    -1.3970     0.1360 cd         1 5MH      -0.101000
      5 C4          -1.9560    -0.0770    -0.0190 cd         1 5MH      -0.145200
      6 C6          -3.4450     0.1520     0.0500 c3         1 5MH      -0.038900
      7 C5          -1.0590     0.9530    -0.2380 cc         1 5MH      -0.044400
      8 N1           0.3220     0.7640    -0.3070 n          1 5MH       0.002500
      9 O1           1.1460     1.9110    -0.5400 oh         1 5MH      -0.449100
     10 H1           0.3970    -2.5580     0.1790 ha         1 5MH       0.227000
     11 H2          -2.0620    -2.2500     0.3090 ha         1 5MH       0.198000
     12 H3          -3.9450    -0.2580    -0.8360 hc         1 5MH       0.050367
     13 H4          -3.8780    -0.3320     0.9330 hc         1 5MH       0.050367
     14 H5          -3.6880     1.2200     0.1050 hc         1 5MH       0.050367
     15 H6          -1.3290     1.9930    -0.3810 h4         1 5MH       0.232000
     16 H7           1.4490     2.1750     0.3580 ho         1 5MH       0.523000
@<TRIPOS>BOND
     1     1     2 2   
     2     2     3 1   
     3     2     8 1   
     4     3     4 2   
     5     3    10 1   
     6     4     5 1   
     7     4    11 1   
     8     5     6 1   
     9     5     7 2   
    10     6    12 1   
    11     6    13 1   
    12     6    14 1   
    13     7     8 1   
    14     7    15 1   
    15     8     9 1   
    16     9    16 1   
@<TRIPOS>SUBSTRUCTURE
     1 5MH         1 TEMP              0 ****  ****    0 ROOT
