@<TRIPOS>MOLECULE
5MI
   19    20     1     0     0
SMALL
No Charge or Current Charge


@<TRIPOS>ATOM
      1 C5          -1.8650     0.2010     0.0290 ca         1 5MI      -0.107300
      2 C6          -1.5490    -1.1780     0.1290 ca         1 5MI      -0.091000
      3 C7          -0.2040    -1.6090     0.1360 ca         1 5MI      -0.125000
      4 C8           0.8020    -0.6390     0.0400 ca         1 5MI      -0.054200
      5 N1           2.1740    -0.8330     0.0270 na         1 5MI      -0.224700
      6 C4          -0.8240     1.1540    -0.0690 ca         1 5MI      -0.059000
      7 C9           0.4970     0.6880    -0.0590 ca         1 5MI      -0.096800
      8 C3           1.7340     1.4010    -0.1410 cc         1 5MI      -0.240200
      9 C2           2.7530     0.4570    -0.0870 cd         1 5MI      -0.166100
     10 CAJ         -3.3180     0.6520     0.0180 c3         1 5MI      -0.039800
     11 H6          -2.3460    -1.9140     0.2010 ha         1 5MI       0.108000
     12 H4          -1.0390     2.2170    -0.1510 ha         1 5MI       0.112000
     13 HAJ1        -3.9430    -0.0010     0.6390 hc         1 5MI       0.038033
     14 HAJ2        -3.4230     1.6730     0.4060 hc         1 5MI       0.038033
     15 HAJ3        -3.7240     0.6360    -1.0000 hc         1 5MI       0.038033
     16 H7           0.0410    -2.6660     0.2140 ha         1 5MI       0.111000
     17 H1           2.6650    -1.7210     0.0880 hn         1 5MI       0.347000
     18 H2           3.8310     0.6030    -0.1210 h4         1 5MI       0.210000
     19 H3           1.8700     2.4770    -0.2300 ha         1 5MI       0.204000
@<TRIPOS>BOND
     1     1     2 ar  
     2     1     6 ar  
     3     1    10 1   
     4     2     3 ar  
     5     2    11 1   
     6     3     4 ar  
     7     3    16 1   
     8     4     5 1   
     9     4     7 ar  
    10     5     9 1   
    11     5    17 1   
    12     6     7 ar  
    13     6    12 1   
    14     7     8 1   
    15     8     9 2   
    16     8    19 1   
    17     9    18 1   
    18    10    13 1   
    19    10    14 1   
    20    10    15 1   
@<TRIPOS>SUBSTRUCTURE
     1 5MI         1 TEMP              0 ****  ****    0 ROOT
