@<TRIPOS>MOLECULE
5MI
   19    20     1     0     0
SMALL
bcc


@<TRIPOS>ATOM
      1 C5          -1.8520     0.2130     0.0210 ca         1 5MI      -0.107300
      2 C6          -1.5280    -1.1600     0.0760 ca         1 5MI      -0.109000
      3 C7          -0.2230    -1.6090     0.0750 ca         1 5MI      -0.143000
      4 C8           0.7890    -0.6520     0.0180 ca         1 5MI      -0.054200
      5 N1           2.1480    -0.7900     0.0030 na         1 5MI      -0.174400
      6 C4          -0.8350     1.1480    -0.0360 ca         1 5MI      -0.077000
      7 C9           0.5030     0.7290    -0.0370 ca         1 5MI      -0.096800
      8 C3           1.7600     1.4080    -0.0850 cc         1 5MI      -0.190200
      9 C2           2.7280     0.4440    -0.0580 cd         1 5MI      -0.116100
     10 CAJ         -3.2950     0.6340     0.0250 c3         1 5MI      -0.039800
     11 H6          -2.3310    -1.8860     0.1190 ha         1 5MI       0.126000
     12 H4          -1.0700     2.2050    -0.0780 ha         1 5MI       0.130000
     13 HAJ1        -3.8110     0.2860     0.9210 hc         1 5MI       0.038033
     14 HAJ2        -3.3940     1.7180    -0.0130 hc         1 5MI       0.038033
     15 HAJ3        -3.8350     0.2230    -0.8310 hc         1 5MI       0.038033
     16 H7           0.0010    -2.6680     0.1170 ha         1 5MI       0.129000
     17 H1           2.6500    -1.6610     0.0400 hn         1 5MI       0.296700
     18 H2           3.8010     0.5430    -0.0740 h4         1 5MI       0.160000
     19 H3           1.9260     2.4720    -0.1350 ha         1 5MI       0.154000
@<TRIPOS>BOND
     1     1     2 ar  
     2     1     6 ar  
     3     1    10 1   
     4     2     3 ar  
     5     2    11 1   
     6     3     4 ar  
     7     3    16 1   
     8     4     5 1   
     9     4     7 ar  
    10     5     9 1   
    11     5    17 1   
    12     6     7 ar  
    13     6    12 1   
    14     7     8 1   
    15     8     9 2   
    16     8    19 1   
    17     9    18 1   
    18    10    13 1   
    19    10    14 1   
    20    10    15 1   
@<TRIPOS>SUBSTRUCTURE
     1 5MI         1 TEMP              0 ****  ****    0 ROOT
