@<TRIPOS>MOLECULE
5MJ
   45    47     1     0     0
SMALL
No Charge or Current Charge


@<TRIPOS>ATOM
      1 C3           7.8400   -12.1000    -9.1660 ca         1 5MJ      -0.060000
      2 C4           6.9270   -13.9430   -11.1170 ca         1 5MJ       0.114100
      3 C5           6.5210   -12.5920    -9.1270 ca         1 5MJ      -0.109500
      4 C6           6.0620   -13.5070   -10.0920 ca         1 5MJ      -0.141000
      5 C2           8.2420   -13.4550   -11.1610 ca         1 5MJ      -0.141000
      6 C1           8.7010   -12.5400   -10.1970 ca         1 5MJ      -0.109500
      7 C19         11.4180    -6.0710    -0.3640 c          1 5MJ       0.584300
      8 C21         11.9110    -7.4970    -0.6200 c5         1 5MJ      -0.185400
      9 C23         11.6850    -7.6330    -2.1590 c5         1 5MJ      -0.050200
     10 C22         10.4330    -6.7840    -2.3490 c2         1 5MJ       0.176800
     11 C20         10.2920    -5.9450    -1.3140 ce         1 5MJ      -0.309400
     12 C25          9.1010    -5.0480    -1.0060 c3         1 5MJ      -0.024900
     13 C15          9.4640    -7.8330    -4.4430 ca         1 5MJ       0.343000
     14 C13         10.6150    -8.0330    -5.2200 ca         1 5MJ      -0.163000
     15 C11         10.5940    -8.9060    -6.3210 ca         1 5MJ      -0.017000
     16 C14          8.2730    -8.5040    -4.7960 ca         1 5MJ       0.048000
     17 Cl           6.7890    -8.2650    -3.8640 cl         1 5MJ      -0.200000
     18 C12          8.2470    -9.3790    -5.8970 ca         1 5MJ      -0.042000
     19 C10          9.4120    -9.5960    -6.6750 ca         1 5MJ      -0.177600
     20 C8           9.4270   -10.5320    -7.8710 c          1 5MJ       0.622700
     21 O9          10.4500   -10.6940    -8.5280 o          1 5MJ      -0.587100
     22 N7           8.2260   -11.1760    -8.1530 ns         1 5MJ      -0.138000
     23 O16          6.5360   -14.8390   -12.0930 os         1 5MJ      -0.348100
     24 C17          5.2100   -15.3970   -12.1350 c3         1 5MJ       0.148900
     25 H1           5.8410   -12.2640    -8.3420 ha         1 5MJ       0.130000
     26 H2           5.0380   -13.8630   -10.0270 ha         1 5MJ       0.124500
     27 H3           8.9110   -13.7880   -11.9510 ha         1 5MJ       0.124500
     28 H4           9.7240   -12.1880   -10.2730 ha         1 5MJ       0.130000
     29 H5          11.2250    -8.1870    -0.1160 hc         1 5MJ       0.078700
     30 H6          11.5410    -8.6740    -2.4680 hc         1 5MJ       0.067700
     31 H7           9.0810    -4.7520     0.0500 hc         1 5MJ       0.043700
     32 H8           9.1330    -4.1300    -1.6050 hc         1 5MJ       0.043700
     33 H9           8.1490    -5.5510    -1.2170 hc         1 5MJ       0.043700
     34 H10          8.5610    -6.6070    -3.1080 hn         1 5MJ       0.511000
     35 H11         11.5300    -7.5010    -4.9800 ha         1 5MJ       0.130000
     36 H12         11.5060    -9.0400    -6.9020 ha         1 5MJ       0.145000
     37 H13          7.3090    -9.8770    -6.1270 ha         1 5MJ       0.131000
     38 H14          7.4770   -10.9440    -7.5160 hn         1 5MJ       0.150000
     39 H15          5.1140   -16.0830   -12.9870 h1         1 5MJ       0.041367
     40 H16          4.9950   -15.9620   -11.2190 h1         1 5MJ       0.041367
     41 H17          4.4580   -14.6070   -12.2480 h1         1 5MJ       0.041367
     42 H18         12.9350    -7.6540    -0.2660 hc         1 5MJ       0.078700
     43 H19         12.5240    -7.2210    -2.7320 hc         1 5MJ       0.067700
     44 N18          9.4900    -6.9550    -3.3500 nu         1 5MJ      -0.819000
     45 O26         11.8950    -5.1830     0.3300 o          1 5MJ      -0.538100
@<TRIPOS>BOND
     1     1     3 ar  
     2     1     6 ar  
     3     1    22 1   
     4     2     4 ar  
     5     2     5 ar  
     6     2    23 1   
     7     3     4 ar  
     8     3    25 1   
     9     4    26 1   
    10     5     6 ar  
    11     5    27 1   
    12     6    28 1   
    13     7     8 1   
    14     7    11 1   
    15     7    45 2   
    16     8     9 1   
    17     8    29 1   
    18     8    42 1   
    19     9    10 1   
    20     9    30 1   
    21     9    43 1   
    22    10    11 2   
    23    10    44 1   
    24    11    12 1   
    25    12    31 1   
    26    12    32 1   
    27    12    33 1   
    28    13    14 ar  
    29    13    16 ar  
    30    13    44 1   
    31    14    15 ar  
    32    14    35 1   
    33    15    19 ar  
    34    15    36 1   
    35    16    17 1   
    36    16    18 ar  
    37    18    19 ar  
    38    18    37 1   
    39    19    20 1   
    40    20    21 2   
    41    20    22 1   
    42    22    38 1   
    43    23    24 1   
    44    24    39 1   
    45    24    40 1   
    46    24    41 1   
    47    34    44 1   
@<TRIPOS>SUBSTRUCTURE
     1 5MJ         1 TEMP              0 ****  ****    0 ROOT
