@<TRIPOS>MOLECULE
5MJ
   45    47     1     0     0
SMALL
abcg2


@<TRIPOS>ATOM
      1 C3           7.7710   -12.1580    -9.0760 ca         1 5MJ      -0.060000
      2 C4           6.9300   -13.9370   -11.0780 ca         1 5MJ       0.114100
      3 C5           6.4600   -12.1340    -9.5540 ca         1 5MJ      -0.109500
      4 C6           6.0340   -13.0110   -10.5430 ca         1 5MJ      -0.141000
      5 C2           8.2430   -13.9630   -10.6050 ca         1 5MJ      -0.141000
      6 C1           8.6660   -13.0880    -9.6170 ca         1 5MJ      -0.109500
      7 C19         11.3950    -5.7710    -0.5660 c          1 5MJ       0.584300
      8 C21         12.5020    -6.5750    -1.2320 c5         1 5MJ      -0.185400
      9 C23         11.8490    -7.2160    -2.4630 c5         1 5MJ      -0.050200
     10 C22         10.4000    -6.8290    -2.3400 c2         1 5MJ       0.176800
     11 C20         10.1650    -5.9890    -1.2860 ce         1 5MJ      -0.309400
     12 C25          8.8480    -5.4070    -0.8890 c3         1 5MJ      -0.024900
     13 C15          9.4120    -8.1750    -4.2060 ca         1 5MJ       0.343000
     14 C13         10.5270    -8.4170    -5.0190 ca         1 5MJ      -0.163000
     15 C11         10.4690    -9.3290    -6.0560 ca         1 5MJ      -0.017000
     16 C14          8.2320    -8.8750    -4.5160 ca         1 5MJ       0.048000
     17 CL           6.7990    -8.6290    -3.5420 cl         1 5MJ      -0.200000
     18 C12          8.1650    -9.7700    -5.5670 ca         1 5MJ      -0.042000
     19 C10          9.2900   -10.0140    -6.3540 ca         1 5MJ      -0.177600
     20 C8           9.3070   -10.9950    -7.4810 c          1 5MJ       0.622700
     21 O9          10.3600   -11.5170    -7.8480 o          1 5MJ      -0.587100
     22 N7           8.1000   -11.2470    -8.0540 ns         1 5MJ      -0.138000
     23 O16          6.6170   -14.8410   -12.0480 os         1 5MJ      -0.348100
     24 C17          5.2880   -14.8350   -12.5680 c3         1 5MJ       0.148900
     25 H1           5.7560   -11.4210    -9.1420 ha         1 5MJ       0.130000
     26 H2           5.0100   -12.9620   -10.8830 ha         1 5MJ       0.124500
     27 H3           8.9340   -14.6830   -11.0240 ha         1 5MJ       0.124500
     28 H4           9.6840   -13.1210    -9.2670 ha         1 5MJ       0.130000
     29 H5          12.8700    -7.3230    -0.5270 hc         1 5MJ       0.078700
     30 H6          11.9650    -8.3010    -2.4960 hc         1 5MJ       0.067700
     31 H7           8.9830    -4.7370    -0.0400 hc         1 5MJ       0.043700
     32 H8           8.3940    -4.8380    -1.7050 hc         1 5MJ       0.043700
     33 H9           8.1330    -6.1820    -0.5950 hc         1 5MJ       0.043700
     34 H10          8.4700    -7.0200    -2.8400 hn         1 5MJ       0.511000
     35 H11         11.4410    -7.8720    -4.8540 ha         1 5MJ       0.130000
     36 H12         11.3460    -9.5020    -6.6630 ha         1 5MJ       0.145000
     37 H13          7.2350   -10.2980    -5.7290 ha         1 5MJ       0.131000
     38 H14          7.3280   -10.6810    -7.7390 hn         1 5MJ       0.150000
     39 H15          5.2610   -15.6130   -13.3260 h1         1 5MJ       0.041367
     40 H16          4.5590   -15.0600   -11.7860 h1         1 5MJ       0.041367
     41 H17          5.0480   -13.8710   -13.0220 h1         1 5MJ       0.041367
     42 H18         13.3390    -5.9250    -1.4870 hc         1 5MJ       0.078700
     43 H19         12.2780    -6.8180    -3.3830 hc         1 5MJ       0.067700
     44 N18          9.3990    -7.2750    -3.1470 nu         1 5MJ      -0.819000
     45 O26         11.5510    -5.0740     0.4380 o          1 5MJ      -0.538100
@<TRIPOS>BOND
     1     1     3 ar  
     2     1     6 ar  
     3     1    22 1   
     4     2     4 ar  
     5     2     5 ar  
     6     2    23 1   
     7     3     4 ar  
     8     3    25 1   
     9     4    26 1   
    10     5     6 ar  
    11     5    27 1   
    12     6    28 1   
    13     7     8 1   
    14     7    11 1   
    15     7    45 2   
    16     8     9 1   
    17     8    29 1   
    18     8    42 1   
    19     9    10 1   
    20     9    30 1   
    21     9    43 1   
    22    10    11 2   
    23    10    44 1   
    24    11    12 1   
    25    12    31 1   
    26    12    32 1   
    27    12    33 1   
    28    13    14 ar  
    29    13    16 ar  
    30    13    44 1   
    31    14    15 ar  
    32    14    35 1   
    33    15    19 ar  
    34    15    36 1   
    35    16    17 1   
    36    16    18 ar  
    37    18    19 ar  
    38    18    37 1   
    39    19    20 1   
    40    20    21 2   
    41    20    22 1   
    42    22    38 1   
    43    23    24 1   
    44    24    39 1   
    45    24    40 1   
    46    24    41 1   
    47    34    44 1   
@<TRIPOS>SUBSTRUCTURE
     1 5MJ         1 TEMP              0 ****  ****    0 ROOT
