@<TRIPOS>MOLECULE
5MK
   18    18     1     0     0
SMALL
No Charge or Current Charge


@<TRIPOS>ATOM
      1 NAB          2.1450    -1.9010    -0.1080 nv         1 5MK      -1.084000
      2 CAI          0.9420    -1.2660    -0.0360 ca         1 5MK       0.373000
      3 CAE         -0.2120    -2.0630    -0.0520 ca         1 5MK      -0.202000
      4 CAF         -1.4860    -1.4780     0.0020 ca         1 5MK      -0.031000
      5 CAJ         -1.6030    -0.0850     0.0720 ca         1 5MK       0.050000
      6 ClA         -3.1970     0.6580     0.1440 cl         1 5MK      -0.206000
      7 CAG         -0.4540     0.7220     0.0910 ca         1 5MK      -0.034000
      8 CAK          0.8440     0.1450     0.0380 ca         1 5MK      -0.234600
      9 CAH          2.0730     1.0310     0.0730 c          1 5MK       0.632700
     10 OAC          3.2110     0.6170     0.2340 o          1 5MK      -0.635100
     11 NAA          1.8980     2.3630    -0.0520 nt         1 5MK      -0.597000
     12 H1           2.9700    -1.3230     0.0690 hn         1 5MK       0.483500
     13 H2           2.2080    -2.8860     0.1380 hn         1 5MK       0.483500
     14 H3          -0.1270    -3.1450    -0.1120 ha         1 5MK       0.118000
     15 H4          -2.3780    -2.1010    -0.0120 ha         1 5MK       0.128000
     16 H5          -0.5930     1.7970     0.1600 ha         1 5MK       0.124000
     17 H6           0.9790     2.7460    -0.2000 hn         1 5MK       0.315500
     18 H7           2.7060     2.9660    -0.0230 hn         1 5MK       0.315500
@<TRIPOS>BOND
     1     1     2 1   
     2     1    12 1   
     3     1    13 1   
     4     2     3 ar  
     5     2     8 ar  
     6     3     4 ar  
     7     3    14 1   
     8     4     5 ar  
     9     4    15 1   
    10     5     6 1   
    11     5     7 ar  
    12     7     8 ar  
    13     7    16 1   
    14     8     9 1   
    15     9    10 2   
    16     9    11 1   
    17    11    17 1   
    18    11    18 1   
@<TRIPOS>SUBSTRUCTURE
     1 5MK         1 TEMP              0 ****  ****    0 ROOT
