@<TRIPOS>MOLECULE
5MK
   18    18     1     0     0
SMALL
abcg2


@<TRIPOS>ATOM
      1 NAB          2.1750    -1.8500    -0.1720 nv         1 5MK      -1.084000
      2 CAI          0.9650    -1.2390    -0.0340 ca         1 5MK       0.373000
      3 CAE         -0.2080    -2.0110    -0.1180 ca         1 5MK      -0.202000
      4 CAF         -1.4600    -1.4470    -0.0240 ca         1 5MK      -0.031000
      5 CAJ         -1.5820    -0.0750     0.1560 ca         1 5MK       0.050000
      6 CLA         -3.1560     0.6440     0.3030 cl         1 5MK      -0.206000
      7 CAG         -0.4550     0.7140     0.2260 ca         1 5MK      -0.034000
      8 CAK          0.8220     0.1580     0.1220 ca         1 5MK      -0.234600
      9 CAH          2.0200     1.0400     0.2210 c          1 5MK       0.632700
     10 OAC          3.0840     0.6380     0.6830 o          1 5MK      -0.635100
     11 NAA          1.8640     2.3020    -0.2080 nt         1 5MK      -0.597000
     12 H1           2.9740    -1.3720     0.2080 hn         1 5MK       0.483500
     13 H2           2.1910    -2.8500    -0.0680 hn         1 5MK       0.483500
     14 H3          -0.1200    -3.0830    -0.2490 ha         1 5MK       0.118000
     15 H4          -2.3380    -2.0770    -0.0840 ha         1 5MK       0.128000
     16 H5          -0.5680     1.7780     0.3900 ha         1 5MK       0.124000
     17 H6           1.0700     2.5940    -0.7500 hn         1 5MK       0.315500
     18 H7           2.6480     2.9330    -0.1740 hn         1 5MK       0.315500
@<TRIPOS>BOND
     1     1     2 1   
     2     1    12 1   
     3     1    13 1   
     4     2     3 ar  
     5     2     8 ar  
     6     3     4 ar  
     7     3    14 1   
     8     4     5 ar  
     9     4    15 1   
    10     5     6 1   
    11     5     7 ar  
    12     7     8 ar  
    13     7    16 1   
    14     8     9 1   
    15     9    10 2   
    16     9    11 1   
    17    11    17 1   
    18    11    18 1   
@<TRIPOS>SUBSTRUCTURE
     1 5MK         1 TEMP              0 ****  ****    0 ROOT
