@<TRIPOS>MOLECULE
5ML
   61    65     1     0     0
SMALL
No Charge or Current Charge


@<TRIPOS>ATOM
      1 C4           3.7780     3.3920     1.1750 c6         1 5ML       0.161300
      2 C5           0.5070     1.8030    -0.0760 ca         1 5ML       0.176000
      3 C6           0.2540     0.4120    -0.0950 ca         1 5ML      -0.002000
      4 N1           1.8380     2.2850    -0.0360 nh         1 5ML      -0.795400
      5 C7           1.5390    -1.8200    -0.1750 c          1 5ML       0.622700
      6 C8           2.9570    -2.3360     0.0000 ca         1 5ML      -0.149600
      7 N2           1.3820    -0.4510    -0.0340 ns         1 5ML      -0.142000
      8 C9           4.0320    -1.4810     0.3520 ca         1 5ML      -0.090000
      9 C10          5.3310    -1.9950     0.5030 ca         1 5ML      -0.119000
     10 C11          5.5790    -3.3620     0.3090 ca         1 5ML      -0.090000
     11 C12          4.5270    -4.2260    -0.0400 ca         1 5ML      -0.083300
     12 N3          -5.1830    -1.3490    -0.9910 nb         1 5ML      -0.660000
     13 C13          4.7910    -5.7100    -0.2470 c3         1 5ML      -0.047800
     14 C14          3.2250    -3.7120    -0.1890 ca         1 5ML      -0.058000
     15 C15         -1.0800    -0.0540    -0.1400 ca         1 5ML      -0.125000
     16 O            0.6110    -2.5810    -0.4320 o          1 5ML      -0.587100
     17 C16         -2.1750     0.8450    -0.1760 cp         1 5ML      -0.007000
     18 C19         -3.5850     0.3440    -0.2260 cp         1 5ML      -0.090000
     19 C27         -4.6440     1.0400     0.4040 ca         1 5ML      -0.054000
     20 C26         -5.9520     0.5290     0.3270 ca         1 5ML      -0.084000
     21 C25         -7.0140     1.2100     0.9530 ca         1 5ML      -0.091000
     22 C24         -8.3200     0.6990     0.8750 ca         1 5ML      -0.108000
     23 C23         -8.5640    -0.4920     0.1740 ca         1 5ML      -0.103000
     24 C22         -7.5020    -1.1720    -0.4490 ca         1 5ML      -0.081000
     25 C21         -6.1860    -0.6760    -0.3830 ca         1 5ML       0.269000
     26 C20         -3.9260    -0.8510    -0.9100 ca         1 5ML       0.367900
     27 C17         -1.8940     2.2320    -0.1610 ca         1 5ML      -0.124000
     28 C18         -0.5720     2.7030    -0.1110 ca         1 5ML      -0.106000
     29 C2           2.5940     2.4390    -1.3180 c6         1 5ML       0.180300
     30 C1           4.1390     2.5460    -1.0940 c6         1 5ML       0.161300
     31 C3           2.2280     3.3110     0.9800 c6         1 5ML       0.180300
     32 N            4.5120     3.6090    -0.1100 n3         1 5ML      -0.717600
     33 C            5.9730     3.7240     0.0790 c3         1 5ML       0.153100
     34 H1           3.9990     4.2070     1.8800 h1         1 5ML       0.037700
     35 H2           4.1170     2.4590     1.6480 h1         1 5ML       0.037700
     36 H3           2.2410     0.0520     0.1410 hn         1 5ML       0.184000
     37 H4           3.8830    -0.4170     0.5190 ha         1 5ML       0.116000
     38 H5           6.1480    -1.3300     0.7750 ha         1 5ML       0.115000
     39 H6           6.5890    -3.7480     0.4310 ha         1 5ML       0.114000
     40 H7           4.5990    -6.2730     0.6740 hc         1 5ML       0.045367
     41 H8           4.1480    -6.1240    -1.0330 hc         1 5ML       0.045367
     42 H9           5.8310    -5.8960    -0.5420 hc         1 5ML       0.045367
     43 H10          2.4170    -4.3910    -0.4560 ha         1 5ML       0.135000
     44 H11         -1.2860    -1.1180    -0.1200 ha         1 5ML       0.151000
     45 H12         -4.4500     1.9560     0.9570 ha         1 5ML       0.119000
     46 H13         -6.8300     2.1340     1.4970 ha         1 5ML       0.114000
     47 H14         -9.1400     1.2250     1.3580 ha         1 5ML       0.114000
     48 H15         -9.5750    -0.8900     0.1130 ha         1 5ML       0.116000
     49 H16         -7.6990    -2.0940    -0.9900 ha         1 5ML       0.132000
     50 H17         -3.1590    -1.4270    -1.4270 h4         1 5ML       0.029100
     51 H18         -2.7060     2.9540    -0.2040 ha         1 5ML       0.117000
     52 H19         -0.3860     3.7730    -0.1110 ha         1 5ML       0.117000
     53 H20          2.3960     1.5850    -1.9820 h1         1 5ML       0.046700
     54 H21          2.2510     3.3440    -1.8410 h1         1 5ML       0.046700
     55 H22          4.5080     1.5700    -0.7480 h1         1 5ML       0.037700
     56 H23          4.6190     2.7420    -2.0640 h1         1 5ML       0.037700
     57 H24          1.7660     3.0780     1.9510 h1         1 5ML       0.046700
     58 H25          1.8620     4.3010     0.6720 h1         1 5ML       0.046700
     59 H27          6.3900     2.7950     0.4910 h1         1 5ML       0.031700
     60 H28          6.4720     3.9300    -0.8770 h1         1 5ML       0.031700
     61 H29          6.2110     4.5440     0.7690 h1         1 5ML       0.031700
@<TRIPOS>BOND
     1     1    31 1   
     2     1    32 1   
     3     1    34 1   
     4     1    35 1   
     5     2     3 ar  
     6     2     4 1   
     7     2    28 ar  
     8     3     7 1   
     9     3    15 ar  
    10     4    29 1   
    11     4    31 1   
    12     5     6 1   
    13     5     7 1   
    14     5    16 2   
    15     6     8 ar  
    16     6    14 ar  
    17     7    36 1   
    18     8     9 ar  
    19     8    37 1   
    20     9    10 ar  
    21     9    38 1   
    22    10    11 ar  
    23    10    39 1   
    24    11    13 1   
    25    11    14 ar  
    26    12    25 ar  
    27    12    26 ar  
    28    13    40 1   
    29    13    41 1   
    30    13    42 1   
    31    14    43 1   
    32    15    17 ar  
    33    15    44 1   
    34    17    18 1   
    35    17    27 ar  
    36    18    19 ar  
    37    18    26 ar  
    38    19    20 ar  
    39    19    45 1   
    40    20    21 ar  
    41    20    25 ar  
    42    21    22 ar  
    43    21    46 1   
    44    22    23 ar  
    45    22    47 1   
    46    23    24 ar  
    47    23    48 1   
    48    24    25 ar  
    49    24    49 1   
    50    26    50 1   
    51    27    28 ar  
    52    27    51 1   
    53    28    52 1   
    54    29    30 1   
    55    29    53 1   
    56    29    54 1   
    57    30    32 1   
    58    30    55 1   
    59    30    56 1   
    60    31    57 1   
    61    31    58 1   
    62    32    33 1   
    63    33    59 1   
    64    33    60 1   
    65    33    61 1   
@<TRIPOS>SUBSTRUCTURE
     1 5ML         1 TEMP              0 ****  ****    0 ROOT
