@<TRIPOS>MOLECULE
5ML
   61    65     1     0     0
SMALL
bcc


@<TRIPOS>ATOM
      1 C4           3.7610     3.3300     1.0110 c6         1 5ML       0.161300
      2 C5           0.5640     1.7520    -0.0700 ca         1 5ML       0.037600
      3 C6           0.2810     0.3740    -0.0090 ca         1 5ML       0.090600
      4 N1           1.9260     2.1340    -0.0250 nh         1 5ML      -0.657000
      5 C7           1.5030    -1.7880     0.0310 c          1 5ML       0.689700
      6 C8           2.8760    -2.3240     0.2820 ca         1 5ML      -0.149600
      7 N2           1.3950    -0.4440     0.1410 ns         1 5ML      -0.468100
      8 C9           3.8110    -1.6620     1.0750 ca         1 5ML      -0.108000
      9 C10          5.0660    -2.2200     1.2700 ca         1 5ML      -0.137000
     10 C11          5.3950    -3.4280     0.6760 ca         1 5ML      -0.108000
     11 C12          4.4700    -4.1120    -0.1130 ca         1 5ML      -0.083300
     12 N3          -5.0210    -1.3210    -0.9380 nb         1 5ML      -0.660000
     13 C13          4.8200    -5.4330    -0.7310 c3         1 5ML      -0.047800
     14 C14          3.2120    -3.5480    -0.2930 ca         1 5ML      -0.076000
     15 C15         -1.0370    -0.0660    -0.0550 ca         1 5ML      -0.143000
     16 O            0.5760    -2.5220    -0.2680 o          1 5ML      -0.587100
     17 C16         -2.0840     0.8510    -0.1570 cp         1 5ML      -0.007000
     18 C19         -3.4790     0.3780    -0.1950 cp         1 5ML      -0.155300
     19 C27         -4.5050     1.0740     0.3940 ca         1 5ML      -0.072000
     20 C26         -5.8230     0.5810     0.3270 ca         1 5ML      -0.149300
     21 C25         -6.9200     1.2500     0.9170 ca         1 5ML      -0.109000
     22 C24         -8.1780     0.7200     0.8270 ca         1 5ML      -0.126000
     23 C23         -8.3920    -0.4980     0.1480 ca         1 5ML      -0.121000
     24 C22         -7.3470    -1.1670    -0.4300 ca         1 5ML      -0.164300
     25 C21         -6.0380    -0.6420    -0.3540 ca         1 5ML       0.399600
     26 C20         -3.8170    -0.8310    -0.8580 ca         1 5ML       0.433200
     27 C17         -1.7980     2.2130    -0.2120 ca         1 5ML      -0.142000
     28 C18         -0.4850     2.6530    -0.1680 ca         1 5ML      -0.124000
     29 C2           2.5210     2.3490    -1.3400 c6         1 5ML       0.180300
     30 C1           4.0240     2.4920    -1.2040 c6         1 5ML       0.161300
     31 C3           2.2530     3.2160     0.8900 c6         1 5ML       0.180300
     32 N            4.3620     3.5600    -0.2860 n3         1 5ML      -0.717600
     33 C            5.7900     3.7490    -0.1900 c3         1 5ML       0.153100
     34 H1           4.0000     4.1680     1.6710 h1         1 5ML       0.037700
     35 H2           4.1550     2.4160     1.4910 h1         1 5ML       0.037700
     36 H3           2.2330     0.1120     0.2840 hn         1 5ML       0.350500
     37 H4           3.5740    -0.7290     1.5710 ha         1 5ML       0.134000
     38 H5           5.7890    -1.7080     1.8910 ha         1 5ML       0.133000
     39 H6           6.3820    -3.8480     0.8300 ha         1 5ML       0.132000
     40 H7           4.7850    -6.2310     0.0130 hc         1 5ML       0.045367
     41 H8           4.1280    -5.6980    -1.5290 hc         1 5ML       0.045367
     42 H9           5.8280    -5.4240    -1.1460 hc         1 5ML       0.045367
     43 H10          2.4840    -4.0650    -0.9050 ha         1 5ML       0.153000
     44 H11         -1.2520    -1.1200     0.0250 ha         1 5ML       0.169000
     45 H12         -4.3140     1.9960     0.9310 ha         1 5ML       0.137000
     46 H13         -6.7480     2.1830     1.4380 ha         1 5ML       0.132000
     47 H14         -9.0170     1.2340     1.2780 ha         1 5ML       0.132000
     48 H15         -9.3930    -0.9040     0.0860 ha         1 5ML       0.134000
     49 H16         -7.5020    -2.1020    -0.9530 ha         1 5ML       0.150000
     50 H17         -3.0350    -1.3950    -1.3580 h4         1 5ML       0.029100
     51 H18         -2.5960     2.9370    -0.3170 ha         1 5ML       0.135000
     52 H19         -0.2780     3.7140    -0.2240 ha         1 5ML       0.135000
     53 H20          2.3000     1.4940    -1.9820 h1         1 5ML       0.046700
     54 H21          2.1010     3.2430    -1.8250 h1         1 5ML       0.046700
     55 H22          4.4500     1.5240    -0.8820 h1         1 5ML       0.037700
     56 H23          4.4490     2.7160    -2.1850 h1         1 5ML       0.037700
     57 H24          1.8250     2.9970     1.8680 h1         1 5ML       0.046700
     58 H25          1.8450     4.1810     0.5550 h1         1 5ML       0.046700
     59 H27          6.3210     2.8650     0.1970 h1         1 5ML       0.031700
     60 H28          6.2040     3.9800    -1.1730 h1         1 5ML       0.031700
     61 H29          6.0130     4.5860     0.4730 h1         1 5ML       0.031700
@<TRIPOS>BOND
     1     1    31 1   
     2     1    32 1   
     3     1    34 1   
     4     1    35 1   
     5     2     3 ar  
     6     2     4 1   
     7     2    28 ar  
     8     3     7 1   
     9     3    15 ar  
    10     4    29 1   
    11     4    31 1   
    12     5     6 1   
    13     5     7 1   
    14     5    16 2   
    15     6     8 ar  
    16     6    14 ar  
    17     7    36 1   
    18     8     9 ar  
    19     8    37 1   
    20     9    10 ar  
    21     9    38 1   
    22    10    11 ar  
    23    10    39 1   
    24    11    13 1   
    25    11    14 ar  
    26    12    25 ar  
    27    12    26 ar  
    28    13    40 1   
    29    13    41 1   
    30    13    42 1   
    31    14    43 1   
    32    15    17 ar  
    33    15    44 1   
    34    17    18 1   
    35    17    27 ar  
    36    18    19 ar  
    37    18    26 ar  
    38    19    20 ar  
    39    19    45 1   
    40    20    21 ar  
    41    20    25 ar  
    42    21    22 ar  
    43    21    46 1   
    44    22    23 ar  
    45    22    47 1   
    46    23    24 ar  
    47    23    48 1   
    48    24    25 ar  
    49    24    49 1   
    50    26    50 1   
    51    27    28 ar  
    52    27    51 1   
    53    28    52 1   
    54    29    30 1   
    55    29    53 1   
    56    29    54 1   
    57    30    32 1   
    58    30    55 1   
    59    30    56 1   
    60    31    57 1   
    61    31    58 1   
    62    32    33 1   
    63    33    59 1   
    64    33    60 1   
    65    33    61 1   
@<TRIPOS>SUBSTRUCTURE
     1 5ML         1 TEMP              0 ****  ****    0 ROOT
