@<TRIPOS>MOLECULE
5MN
   60    64     1     0     0
SMALL
No Charge or Current Charge


@<TRIPOS>ATOM
      1 C4           3.6380     3.2990     1.2930 c6         1 5MN       0.162300
      2 C5           0.2770     1.7800     0.1980 ca         1 5MN       0.173000
      3 C6           0.0320     0.3910     0.1050 ca         1 5MN      -0.006000
      4 N1           1.6040     2.2720     0.1640 nh         1 5MN      -0.797400
      5 C7           1.3230    -1.8220    -0.1930 c          1 5MN       0.621700
      6 C8           2.7580    -2.3200    -0.1940 ca         1 5MN      -0.148600
      7 N2           1.1670    -0.4610     0.0110 ns         1 5MN      -0.141000
      8 C9           3.8550    -1.4610     0.0690 ca         1 5MN      -0.091000
      9 C10          5.1690    -1.9580     0.0550 ca         1 5MN      -0.119000
     10 C11          5.4110    -3.3130    -0.2160 ca         1 5MN      -0.090000
     11 C12          4.3370    -4.1830    -0.4730 ca         1 5MN      -0.084300
     12 N3          -7.8080    -0.9280     0.2210 na         1 5MN      -0.223700
     13 C13          4.5960    -5.6530    -0.7690 c3         1 5MN      -0.047800
     14 C14          3.0210    -3.6850    -0.4620 ca         1 5MN      -0.060000
     15 C15         -1.2990    -0.0850     0.1320 ca         1 5MN      -0.129000
     16 O            0.3810    -2.5900    -0.3680 o          1 5MN      -0.590100
     17 C16         -2.3980     0.8030     0.2460 cp         1 5MN       0.003000
     18 C17         -2.1240     2.1890     0.3320 ca         1 5MN      -0.128000
     19 C18         -0.8060     2.6690     0.3100 ca         1 5MN      -0.107000
     20 C2           2.2380     2.5610    -1.1610 c6         1 5MN       0.181800
     21 C1           3.7960     2.6770    -1.0690 c6         1 5MN       0.162300
     22 C3           2.0770     3.2060     1.2340 c6         1 5MN       0.181800
     23 N            4.2470     3.6490    -0.0270 n3         1 5MN      -0.718600
     24 C            5.7180     3.7740     0.0390 c3         1 5MN       0.153100
     25 C19         -3.8060     0.2930     0.2740 cp         1 5MN      -0.071000
     26 C26         -4.1300    -0.9430     0.9190 ca         1 5MN      -0.074000
     27 C25         -5.4530    -1.4350     0.9530 ca         1 5MN      -0.130000
     28 C22         -6.4490    -0.6740     0.3320 ca         1 5MN      -0.044200
     29 C23         -8.4410     0.1130    -0.4940 cc         1 5MN      -0.166100
     30 C24         -7.4120     0.9920    -0.8020 cd         1 5MN      -0.237200
     31 C21         -6.1580     0.5060    -0.2870 ca         1 5MN      -0.103800
     32 C20         -4.8600     1.0270    -0.3410 ca         1 5MN      -0.045000
     33 H1           3.9140     4.0470     2.0500 h1         1 5MN       0.036700
     34 H2           4.0290     2.3320     1.6420 h1         1 5MN       0.036700
     35 H3           2.0350     0.0470     0.1130 hn         1 5MN       0.182000
     36 H4           3.7110    -0.4070     0.2910 ha         1 5MN       0.117000
     37 H5           6.0030    -1.2900     0.2570 ha         1 5MN       0.115000
     38 H6           6.4330    -3.6860    -0.2250 ha         1 5MN       0.113000
     39 H7          -8.2750    -1.7470     0.6020 hn         1 5MN       0.348000
     40 H8           3.7960    -6.2870    -0.3700 hc         1 5MN       0.045033
     41 H9           4.6550    -5.8280    -1.8500 hc         1 5MN       0.045033
     42 H10          5.5380    -5.9940    -0.3230 hc         1 5MN       0.045033
     43 H11          2.1970    -4.3660    -0.6670 ha         1 5MN       0.134000
     44 H12         -1.5030    -1.1470     0.0590 ha         1 5MN       0.150000
     45 H13         -2.9410     2.8990     0.4310 ha         1 5MN       0.117000
     46 H14         -0.6250     3.7380     0.3740 ha         1 5MN       0.114000
     47 H15          1.9890     1.7680    -1.8820 h1         1 5MN       0.046450
     48 H16          1.8380     3.5040    -1.5630 h1         1 5MN       0.046450
     49 H17          4.2060     1.6800    -0.8530 h1         1 5MN       0.036700
     50 H18          4.1820     2.9720    -2.0560 h1         1 5MN       0.036700
     51 H19          1.7090     2.8730     2.2160 h1         1 5MN       0.046450
     52 H20          1.6740     4.2130     1.0560 h1         1 5MN       0.046450
     53 H22          6.1810     2.8180     0.3210 h1         1 5MN       0.031367
     54 H23          6.1250     4.0790    -0.9350 h1         1 5MN       0.031367
     55 H24          6.0100     4.5300     0.7790 h1         1 5MN       0.031367
     56 H25         -3.3480    -1.5170     1.4110 ha         1 5MN       0.118000
     57 H26         -5.6890    -2.3730     1.4490 ha         1 5MN       0.114000
     58 H27         -9.5070     0.1380    -0.7100 h4         1 5MN       0.210000
     59 H28         -7.5410     1.9190    -1.3580 ha         1 5MN       0.205000
     60 H29         -4.6690     1.9650    -0.8550 ha         1 5MN       0.116000
@<TRIPOS>BOND
     1     1    22 1   
     2     1    23 1   
     3     1    33 1   
     4     1    34 1   
     5     2     3 ar  
     6     2     4 1   
     7     2    19 ar  
     8     3     7 1   
     9     3    15 ar  
    10     4    20 1   
    11     4    22 1   
    12     5     6 1   
    13     5     7 1   
    14     5    16 2   
    15     6     8 ar  
    16     6    14 ar  
    17     7    35 1   
    18     8     9 ar  
    19     8    36 1   
    20     9    10 ar  
    21     9    37 1   
    22    10    11 ar  
    23    10    38 1   
    24    11    13 1   
    25    11    14 ar  
    26    12    28 1   
    27    12    29 1   
    28    12    39 1   
    29    13    40 1   
    30    13    41 1   
    31    13    42 1   
    32    14    43 1   
    33    15    17 ar  
    34    15    44 1   
    35    17    18 ar  
    36    17    25 1   
    37    18    19 ar  
    38    18    45 1   
    39    19    46 1   
    40    20    21 1   
    41    20    47 1   
    42    20    48 1   
    43    21    23 1   
    44    21    49 1   
    45    21    50 1   
    46    22    51 1   
    47    22    52 1   
    48    23    24 1   
    49    24    53 1   
    50    24    54 1   
    51    24    55 1   
    52    25    26 ar  
    53    25    32 ar  
    54    26    27 ar  
    55    26    56 1   
    56    27    28 ar  
    57    27    57 1   
    58    28    31 ar  
    59    29    30 2   
    60    29    58 1   
    61    30    31 1   
    62    30    59 1   
    63    31    32 ar  
    64    32    60 1   
@<TRIPOS>SUBSTRUCTURE
     1 5MN         1 TEMP              0 ****  ****    0 ROOT
