@<TRIPOS>MOLECULE
5MN
   60    64     1     0     0
SMALL
abcg2


@<TRIPOS>ATOM
      1 C4           3.5960     3.2910     1.1140 c6         1 5MN       0.162300
      2 C5           0.3210     1.7560     0.2200 ca         1 5MN       0.173000
      3 C6           0.0570     0.3730     0.2050 ca         1 5MN      -0.006000
      4 N1           1.6800     2.1510     0.1730 nh         1 5MN      -0.797400
      5 C7           1.3050    -1.7690    -0.0050 c          1 5MN       0.621700
      6 C8           2.7030    -2.2930     0.0850 ca         1 5MN      -0.148600
      7 N2           1.1900    -0.4370     0.1950 ns         1 5MN      -0.141000
      8 C9           3.6990    -1.6700     0.8370 ca         1 5MN      -0.091000
      9 C10          4.9700    -2.2170     0.8820 ca         1 5MN      -0.119000
     10 C11          5.2590    -3.3770     0.1770 ca         1 5MN      -0.090000
     11 C12          4.2780    -4.0190    -0.5740 ca         1 5MN      -0.084300
     12 N3          -7.6430    -0.9140     0.2180 na         1 5MN      -0.223700
     13 C13          4.5750    -5.2810    -1.3300 c3         1 5MN      -0.047800
     14 C14          3.0010    -3.4660    -0.6020 ca         1 5MN      -0.060000
     15 C15         -1.2560    -0.0840     0.2240 ca         1 5MN      -0.129000
     16 O            0.3650    -2.5030    -0.2630 o          1 5MN      -0.590100
     17 C16         -2.3220     0.8170     0.2790 cp         1 5MN       0.003000
     18 C17         -2.0500     2.1830     0.3170 ca         1 5MN      -0.128000
     19 C18         -0.7420     2.6420     0.2800 ca         1 5MN      -0.107000
     20 C2           2.1780     2.4100    -1.1750 c6         1 5MN       0.181800
     21 C1           3.6890     2.5210    -1.1410 c6         1 5MN       0.162300
     22 C3           2.0820     3.2010     1.0940 c6         1 5MN       0.181800
     23 N            4.1100     3.5510    -0.2140 n3         1 5MN      -0.718600
     24 C            5.5460     3.7110    -0.2110 c3         1 5MN       0.153100
     25 C19         -3.7140     0.3190     0.2970 cp         1 5MN      -0.071000
     26 C26         -4.0370    -0.8570     1.0080 ca         1 5MN      -0.074000
     27 C25         -5.3210    -1.3590     1.0500 ca         1 5MN      -0.130000
     28 C22         -6.3110    -0.6630     0.3590 ca         1 5MN      -0.044200
     29 C23         -8.2080     0.0560    -0.5600 cc         1 5MN      -0.166100
     30 C24         -7.2550     0.9570    -0.9410 cd         1 5MN      -0.237200
     31 C21         -6.0240     0.5180    -0.3600 ca         1 5MN      -0.103800
     32 C20         -4.7130     1.0020    -0.3830 ca         1 5MN      -0.045000
     33 H1           3.8960     4.1040     1.7800 h1         1 5MN       0.036700
     34 H2           4.0060     2.3560     1.5370 h1         1 5MN       0.036700
     35 H3           2.0290     0.1220     0.3130 hn         1 5MN       0.182000
     36 H4           3.4960    -0.7800     1.4210 ha         1 5MN       0.117000
     37 H5           5.7390    -1.7380     1.4740 ha         1 5MN       0.115000
     38 H6           6.2600    -3.7900     0.2150 ha         1 5MN       0.113000
     39 H7          -8.1410    -1.6880     0.6250 hn         1 5MN       0.348000
     40 H8           4.0300    -6.1280    -0.9100 hc         1 5MN       0.045033
     41 H9           4.2790    -5.1950    -2.3760 hc         1 5MN       0.045033
     42 H10          5.6360    -5.5220    -1.3010 hc         1 5MN       0.045033
     43 H11          2.2260    -3.9530    -1.1810 ha         1 5MN       0.134000
     44 H12         -1.4550    -1.1440     0.1860 ha         1 5MN       0.150000
     45 H13         -2.8600     2.8970     0.3870 ha         1 5MN       0.117000
     46 H14         -0.5540     3.7080     0.3050 ha         1 5MN       0.114000
     47 H15          1.8910     1.5880    -1.8320 h1         1 5MN       0.046450
     48 H16          1.7410     3.3310    -1.5900 h1         1 5MN       0.046450
     49 H17          4.1130     1.5340    -0.8770 h1         1 5MN       0.036700
     50 H18          4.0530     2.7670    -2.1410 h1         1 5MN       0.036700
     51 H19          1.7170     2.9580     2.0930 h1         1 5MN       0.046450
     52 H20          1.6680     4.1800     0.8140 h1         1 5MN       0.046450
     53 H22          6.0830     2.8070     0.1170 h1         1 5MN       0.031367
     54 H23          5.8960     3.9590    -1.2140 h1         1 5MN       0.031367
     55 H24          5.8300     4.5270     0.4550 h1         1 5MN       0.031367
     56 H25         -3.2600    -1.3720     1.5600 ha         1 5MN       0.118000
     57 H26         -5.5460    -2.2590     1.6090 ha         1 5MN       0.114000
     58 H27         -9.2620     0.0300    -0.7860 h4         1 5MN       0.210000
     59 H28         -7.4130     1.8280    -1.5560 ha         1 5MN       0.205000
     60 H29         -4.4770     1.8950    -0.9480 ha         1 5MN       0.116000
@<TRIPOS>BOND
     1     1    22 1   
     2     1    23 1   
     3     1    33 1   
     4     1    34 1   
     5     2     3 ar  
     6     2     4 1   
     7     2    19 ar  
     8     3     7 1   
     9     3    15 ar  
    10     4    20 1   
    11     4    22 1   
    12     5     6 1   
    13     5     7 1   
    14     5    16 2   
    15     6     8 ar  
    16     6    14 ar  
    17     7    35 1   
    18     8     9 ar  
    19     8    36 1   
    20     9    10 ar  
    21     9    37 1   
    22    10    11 ar  
    23    10    38 1   
    24    11    13 1   
    25    11    14 ar  
    26    12    28 1   
    27    12    29 1   
    28    12    39 1   
    29    13    40 1   
    30    13    41 1   
    31    13    42 1   
    32    14    43 1   
    33    15    17 ar  
    34    15    44 1   
    35    17    18 ar  
    36    17    25 1   
    37    18    19 ar  
    38    18    45 1   
    39    19    46 1   
    40    20    21 1   
    41    20    47 1   
    42    20    48 1   
    43    21    23 1   
    44    21    49 1   
    45    21    50 1   
    46    22    51 1   
    47    22    52 1   
    48    23    24 1   
    49    24    53 1   
    50    24    54 1   
    51    24    55 1   
    52    25    26 ar  
    53    25    32 ar  
    54    26    27 ar  
    55    26    56 1   
    56    27    28 ar  
    57    27    57 1   
    58    28    31 ar  
    59    29    30 2   
    60    29    58 1   
    61    30    31 1   
    62    30    59 1   
    63    31    32 ar  
    64    32    60 1   
@<TRIPOS>SUBSTRUCTURE
     1 5MN         1 TEMP              0 ****  ****    0 ROOT
