@<TRIPOS>MOLECULE
5MO
   61    65     1     0     0
SMALL
No Charge or Current Charge


@<TRIPOS>ATOM
      1 C4           3.9690    -2.5150     1.1180 c6         1 5MO       0.161300
      2 C5           0.3330    -1.7740     0.1180 ca         1 5MO       0.178000
      3 C6           0.0930    -0.3810     0.1180 ca         1 5MO      -0.008000
      4 N1           1.6600    -2.2690     0.0740 nh         1 5MO      -0.788400
      5 C7           1.3950     1.8430     0.1550 c          1 5MO       0.621700
      6 C8           2.8140     2.3460    -0.0450 ca         1 5MO      -0.148600
      7 N2           1.2260     0.4730     0.0320 ns         1 5MO      -0.141000
      8 C9           3.8780     1.4790    -0.4020 ca         1 5MO      -0.092000
      9 C10          5.1780     1.9810    -0.5760 ca         1 5MO      -0.117000
     10 C11          5.4400     3.3480    -0.4000 ca         1 5MO      -0.091000
     11 C12          4.3990     4.2250    -0.0470 ca         1 5MO      -0.082300
     12 C13          4.6770     5.7090     0.1410 c3         1 5MO      -0.047800
     13 C14          3.0950     3.7220     0.1260 ca         1 5MO      -0.059000
     14 C15         -1.2360     0.0960     0.1670 ca         1 5MO      -0.128000
     15 O            0.4760     2.6130     0.4160 o          1 5MO      -0.587100
     16 C16         -2.3380    -0.7920     0.2270 cp         1 5MO       0.000000
     17 C17         -2.0700    -2.1810     0.2300 ca         1 5MO      -0.125000
     18 C18         -0.7530    -2.6650     0.1750 ca         1 5MO      -0.111000
     19 C2           2.0340    -3.3280    -0.9140 c6         1 5MO       0.178800
     20 C1           3.5810    -3.4260    -1.1210 c6         1 5MO       0.161300
     21 C3           2.4270    -2.3900     1.3530 c6         1 5MO       0.178800
     22 N            4.3250    -3.6090     0.1630 n3         1 5MO      -0.716600
     23 C            5.7840    -3.7400    -0.0360 c3         1 5MO       0.153100
     24 C19         -3.7440    -0.2780     0.2800 cp         1 5MO      -0.076000
     25 C26         -4.0640     0.9160     0.9890 ca         1 5MO      -0.059000
     26 C25         -5.3850     1.4040     1.0390 ca         1 5MO      -0.139000
     27 C22         -6.3880     0.6850     0.3820 ca         1 5MO       0.131100
     28 O1          -7.7020     1.0550     0.3410 os         1 5MO      -0.331100
     29 C23         -8.4000    -0.1060    -0.2260 c5         1 5MO       0.148600
     30 C24         -7.3400    -1.0130    -0.9560 c5         1 5MO      -0.052100
     31 C21         -6.1070    -0.4650    -0.3130 ca         1 5MO      -0.177300
     32 C20         -4.7980    -0.9680    -0.3810 ca         1 5MO      -0.044000
     33 H1           4.3410    -1.5520     0.7390 h1         1 5MO       0.036700
     34 H2           4.4570    -2.6840     2.0890 h1         1 5MO       0.036700
     35 H3           2.0800    -0.0380    -0.1480 hn         1 5MO       0.181000
     36 H4           3.7180     0.4140    -0.5550 ha         1 5MO       0.115000
     37 H5           5.9870     1.3070    -0.8510 ha         1 5MO       0.115000
     38 H6           6.4500     3.7250    -0.5400 ha         1 5MO       0.113000
     39 H7           4.4790     6.2630    -0.7850 hc         1 5MO       0.045367
     40 H8           4.0460     6.1370     0.9290 hc         1 5MO       0.045367
     41 H9           5.7210     5.8900     0.4220 hc         1 5MO       0.045367
     42 H10          2.2970     4.4100     0.3960 ha         1 5MO       0.133000
     43 H11         -1.4370     1.1610     0.1320 ha         1 5MO       0.151000
     44 H12         -2.8890    -2.8940     0.2890 ha         1 5MO       0.116000
     45 H13         -0.5760    -3.7370     0.1890 ha         1 5MO       0.115000
     46 H14          1.6640    -4.3060    -0.5720 h1         1 5MO       0.046450
     47 H15          1.5630    -3.1210    -1.8870 h1         1 5MO       0.046450
     48 H16          3.7890    -4.2630    -1.8030 h1         1 5MO       0.036700
     49 H17          3.9220    -2.5100    -1.6250 h1         1 5MO       0.036700
     50 H18          2.0830    -3.2770     1.9060 h1         1 5MO       0.046450
     51 H19          2.2420    -1.5160     1.9930 h1         1 5MO       0.046450
     52 H21          6.2030    -2.8270    -0.4800 h1         1 5MO       0.031700
     53 H22          6.2910    -3.9210     0.9210 h1         1 5MO       0.031700
     54 H23          6.0100    -4.5820    -0.7030 h1         1 5MO       0.031700
     55 H24         -3.2830     1.4620     1.5140 ha         1 5MO       0.124000
     56 H25         -5.6240     2.3160     1.5810 ha         1 5MO       0.132000
     57 H26         -8.8640    -0.6570     0.6030 h1         1 5MO       0.057200
     58 H27         -7.4980    -2.0800    -0.7590 hc         1 5MO       0.062200
     59 H28         -4.5980    -1.8710    -0.9520 ha         1 5MO       0.116000
     60 H20         -9.2010     0.2320    -0.8970 h1         1 5MO       0.057200
     61 H29         -7.3470    -0.8580    -2.0410 hc         1 5MO       0.062200
@<TRIPOS>BOND
     1     1    21 1   
     2     1    22 1   
     3     1    33 1   
     4     1    34 1   
     5     2     3 ar  
     6     2     4 1   
     7     2    18 ar  
     8     3     7 1   
     9     3    14 ar  
    10     4    19 1   
    11     4    21 1   
    12     5     6 1   
    13     5     7 1   
    14     5    15 2   
    15     6     8 ar  
    16     6    13 ar  
    17     7    35 1   
    18     8     9 ar  
    19     8    36 1   
    20     9    10 ar  
    21     9    37 1   
    22    10    11 ar  
    23    10    38 1   
    24    11    12 1   
    25    11    13 ar  
    26    12    39 1   
    27    12    40 1   
    28    12    41 1   
    29    13    42 1   
    30    14    16 ar  
    31    14    43 1   
    32    16    17 ar  
    33    16    24 1   
    34    17    18 ar  
    35    17    44 1   
    36    18    45 1   
    37    19    20 1   
    38    19    46 1   
    39    19    47 1   
    40    20    22 1   
    41    20    48 1   
    42    20    49 1   
    43    21    50 1   
    44    21    51 1   
    45    22    23 1   
    46    23    52 1   
    47    23    53 1   
    48    23    54 1   
    49    24    25 ar  
    50    24    32 ar  
    51    25    26 ar  
    52    25    55 1   
    53    26    27 ar  
    54    26    56 1   
    55    27    28 1   
    56    27    31 ar  
    57    28    29 1   
    58    29    30 1   
    59    29    57 1   
    60    29    60 1   
    61    30    31 1   
    62    30    58 1   
    63    30    61 1   
    64    31    32 ar  
    65    32    59 1   
@<TRIPOS>SUBSTRUCTURE
     1 5MO         1 TEMP              0 ****  ****    0 ROOT
