@<TRIPOS>MOLECULE
5MO
   61    65     1     0     0
SMALL
bcc


@<TRIPOS>ATOM
      1 C4           3.8760    -2.6050     0.9910 c6         1 5MO       0.161300
      2 C5           0.4130    -1.7290    -0.0440 ca         1 5MO       0.039600
      3 C6           0.1540    -0.3530     0.1140 ca         1 5MO       0.084600
      4 N1           1.7650    -2.1350    -0.1380 nh         1 5MO      -0.650000
      5 C7           1.3810     1.7980     0.3470 c          1 5MO       0.688700
      6 C8           2.7750     2.3320     0.2800 ca         1 5MO      -0.148600
      7 N2           1.2790     0.4710     0.1010 ns         1 5MO      -0.467100
      8 C9           3.8800     1.5820     0.6730 ca         1 5MO      -0.110000
      9 C10          5.1480     2.1410     0.6110 ca         1 5MO      -0.135000
     10 C11          5.3170     3.4380     0.1510 ca         1 5MO      -0.109000
     11 C12          4.2230     4.2080    -0.2400 ca         1 5MO      -0.082300
     12 C13          4.4140     5.6020    -0.7600 c3         1 5MO      -0.047800
     13 C14          2.9550     3.6430    -0.1550 ca         1 5MO      -0.077000
     14 C15         -1.1570     0.0970     0.2290 ca         1 5MO      -0.146000
     15 O            0.4350     2.5270     0.5930 o          1 5MO      -0.587100
     16 C16         -2.2280    -0.7980     0.1820 cp         1 5MO       0.000000
     17 C17         -1.9640    -2.1540     0.0050 ca         1 5MO      -0.143000
     18 C18         -0.6580    -2.6070    -0.1020 ca         1 5MO      -0.129000
     19 C2           2.0490    -3.1950    -1.0920 c6         1 5MO       0.178800
     20 C1           3.5500    -3.3520    -1.2440 c6         1 5MO       0.161300
     21 C3           2.3800    -2.4140     1.1570 c6         1 5MO       0.178800
     22 N            4.1620    -3.6520     0.0340 n3         1 5MO      -0.716600
     23 C            5.5820    -3.8860    -0.0930 c3         1 5MO       0.153100
     24 C19         -3.6140    -0.3060     0.3060 cp         1 5MO      -0.076000
     25 C26         -3.9210     0.7630     1.1500 ca         1 5MO      -0.077000
     26 C25         -5.2180     1.2440     1.2940 ca         1 5MO      -0.157000
     27 C22         -6.2160     0.6230     0.5650 ca         1 5MO       0.131100
     28 O1          -7.5180     0.9660     0.5830 os         1 5MO      -0.307900
     29 C23         -8.2510    -0.0520    -0.1270 c5         1 5MO       0.125400
     30 C24         -7.2240    -0.8360    -0.9570 c5         1 5MO      -0.052100
     31 C21         -5.9420    -0.4430    -0.2830 ca         1 5MO      -0.177300
     32 C20         -4.6520    -0.9070    -0.4190 ca         1 5MO      -0.062000
     33 H1           4.3330    -1.6440     0.6890 h1         1 5MO       0.036700
     34 H2           4.3080    -2.8720     1.9580 h1         1 5MO       0.036700
     35 H3           2.1100    -0.0300    -0.1940 hn         1 5MO       0.347500
     36 H4           3.7650     0.5790     1.0660 ha         1 5MO       0.133000
     37 H5           6.0070     1.5650     0.9280 ha         1 5MO       0.133000
     38 H6           6.3140     3.8600     0.1010 ha         1 5MO       0.131000
     39 H7           4.7230     5.5870    -1.8070 hc         1 5MO       0.045367
     40 H8           3.4950     6.1830    -0.7010 hc         1 5MO       0.045367
     41 H9           5.1870     6.1310    -0.2040 hc         1 5MO       0.045367
     42 H10          2.0910     4.2300    -0.4440 ha         1 5MO       0.151000
     43 H11         -1.3510     1.1540     0.3200 ha         1 5MO       0.169000
     44 H12         -2.7740    -2.8700    -0.0190 ha         1 5MO       0.134000
     45 H13         -0.4770    -3.6680    -0.2200 ha         1 5MO       0.133000
     46 H14          1.6230    -4.1600    -0.7820 h1         1 5MO       0.046450
     47 H15          1.6100    -2.9320    -2.0560 h1         1 5MO       0.046450
     48 H16          3.7480    -4.1720    -1.9380 h1         1 5MO       0.036700
     49 H17          3.9670    -2.4350    -1.6960 h1         1 5MO       0.036700
     50 H18          1.9400    -3.3090     1.6210 h1         1 5MO       0.046450
     51 H19          2.1980    -1.5760     1.8330 h1         1 5MO       0.046450
     52 H21          6.1350    -3.0080    -0.4630 h1         1 5MO       0.031700
     53 H22          6.0040    -4.1610     0.8750 h1         1 5MO       0.031700
     54 H23          5.7640    -4.7090    -0.7850 h1         1 5MO       0.031700
     55 H24         -3.1360     1.2220     1.7380 ha         1 5MO       0.142000
     56 H25         -5.4310     2.0680     1.9620 ha         1 5MO       0.150000
     57 H26         -8.7420    -0.6980     0.6050 h1         1 5MO       0.057200
     58 H27         -7.4180    -1.9080    -0.9290 hc         1 5MO       0.062200
     59 H28         -4.4420    -1.7240    -1.1000 ha         1 5MO       0.134000
     60 H20         -9.0160     0.4350    -0.7280 h1         1 5MO       0.057200
     61 H29         -7.2260    -0.5300    -2.0060 hc         1 5MO       0.062200
@<TRIPOS>BOND
     1     1    21 1   
     2     1    22 1   
     3     1    33 1   
     4     1    34 1   
     5     2     3 ar  
     6     2     4 1   
     7     2    18 ar  
     8     3     7 1   
     9     3    14 ar  
    10     4    19 1   
    11     4    21 1   
    12     5     6 1   
    13     5     7 1   
    14     5    15 2   
    15     6     8 ar  
    16     6    13 ar  
    17     7    35 1   
    18     8     9 ar  
    19     8    36 1   
    20     9    10 ar  
    21     9    37 1   
    22    10    11 ar  
    23    10    38 1   
    24    11    12 1   
    25    11    13 ar  
    26    12    39 1   
    27    12    40 1   
    28    12    41 1   
    29    13    42 1   
    30    14    16 ar  
    31    14    43 1   
    32    16    17 ar  
    33    16    24 1   
    34    17    18 ar  
    35    17    44 1   
    36    18    45 1   
    37    19    20 1   
    38    19    46 1   
    39    19    47 1   
    40    20    22 1   
    41    20    48 1   
    42    20    49 1   
    43    21    50 1   
    44    21    51 1   
    45    22    23 1   
    46    23    52 1   
    47    23    53 1   
    48    23    54 1   
    49    24    25 ar  
    50    24    32 ar  
    51    25    26 ar  
    52    25    55 1   
    53    26    27 ar  
    54    26    56 1   
    55    27    28 1   
    56    27    31 ar  
    57    28    29 1   
    58    29    30 1   
    59    29    57 1   
    60    29    60 1   
    61    30    31 1   
    62    30    58 1   
    63    30    61 1   
    64    31    32 ar  
    65    32    59 1   
@<TRIPOS>SUBSTRUCTURE
     1 5MO         1 TEMP              0 ****  ****    0 ROOT
