@<TRIPOS>MOLECULE
5MP
   13    13     1     0     0
SMALL
No Charge or Current Charge


@<TRIPOS>ATOM
      1 C1           0.0250    -0.0040     0.7090 cc         1 5MP      -0.148300
      2 C2          -1.1080     0.0880    -0.1220 cc         1 5MP      -0.179000
      3 C3           1.1330    -0.0580    -0.0950 cd         1 5MP      -0.202000
      4 C4          -0.0440    -0.0320     2.2110 c3         1 5MP      -0.011800
      5 C5          -0.7200     0.0920    -1.4320 cd         1 5MP      -0.201000
      6 N6           0.6760     0.0000    -1.4190 na         1 5MP      -0.112000
      7 HC2         -2.1310     0.1470     0.2390 ha         1 5MP       0.129000
      8 HC3          2.1840    -0.1320     0.1620 h4         1 5MP       0.141000
      9 HC41        -0.5160     0.8800     2.5970 hc         1 5MP       0.033367
     10 HC42        -0.6310    -0.8910     2.5590 hc         1 5MP       0.033367
     11 HC43         0.9570    -0.1070     2.6510 hc         1 5MP       0.033367
     12 HC5         -1.3040     0.1490    -2.3450 h4         1 5MP       0.142000
     13 HN6          1.2700    -0.0200    -2.2440 hn         1 5MP       0.340000
@<TRIPOS>BOND
     1     1     2 1   
     2     1     3 2   
     3     1     4 1   
     4     2     5 2   
     5     2     7 1   
     6     3     6 1   
     7     3     8 1   
     8     4     9 1   
     9     4    10 1   
    10     4    11 1   
    11     5     6 1   
    12     5    12 1   
    13     6    13 1   
@<TRIPOS>SUBSTRUCTURE
     1 5MP         1 TEMP              0 ****  ****    0 ROOT
