@<TRIPOS>MOLECULE
5MP
   13    13     1     0     0
SMALL
bcc


@<TRIPOS>ATOM
      1 C1          -0.0180    -0.0020     0.7190 cc         1 5MP      -0.148300
      2 C2          -1.1490     0.0870    -0.1380 cc         1 5MP      -0.197000
      3 C3           1.0850    -0.0510    -0.0980 cd         1 5MP      -0.169300
      4 C4          -0.0200    -0.0330     2.2120 c3         1 5MP      -0.011800
      5 C5          -0.6940     0.0870    -1.4310 cd         1 5MP      -0.168300
      6 N6           0.6620     0.0040    -1.3920 na         1 5MP      -0.163100
      7 HC2         -2.1840     0.1420     0.1650 ha         1 5MP       0.147000
      8 HC3          2.1320    -0.1190     0.1440 h4         1 5MP       0.159000
      9 HC41        -0.4510     0.8750     2.6370 hc         1 5MP       0.033367
     10 HC42        -0.6010    -0.8720     2.5990 hc         1 5MP       0.033367
     11 HC43         0.9910    -0.1280     2.6080 hc         1 5MP       0.033367
     12 HC5         -1.2300     0.1410    -2.3640 h4         1 5MP       0.160000
     13 HN6          1.2680    -0.0180    -2.1910 hn         1 5MP       0.289700
@<TRIPOS>BOND
     1     1     2 1   
     2     1     3 2   
     3     1     4 1   
     4     2     5 2   
     5     2     7 1   
     6     3     6 1   
     7     3     8 1   
     8     4     9 1   
     9     4    10 1   
    10     4    11 1   
    11     5     6 1   
    12     5    12 1   
    13     6    13 1   
@<TRIPOS>SUBSTRUCTURE
     1 5MP         1 TEMP              0 ****  ****    0 ROOT
