@<TRIPOS>MOLECULE
5MQ
   61    65     1     0     0
SMALL
abcg2


@<TRIPOS>ATOM
      1 C4           3.1930    -2.9270    -1.0680 c6         1 5MQ       0.162300
      2 C5           0.0420    -1.5500     0.3510 ca         1 5MQ       0.175000
      3 C6          -0.0420    -0.1500     0.2300 ca         1 5MQ      -0.010000
      4 N1           1.3320    -2.1350     0.2940 nh         1 5MQ      -0.787400
      5 C7           1.4290     1.8190    -0.1440 c          1 5MQ       0.621700
      6 C8           2.8740     2.1530    -0.3280 ca         1 5MQ      -0.147600
      7 N2           1.1770     0.5110     0.0960 ns         1 5MQ      -0.140000
      8 C9           3.7880     1.2460    -0.8580 ca         1 5MQ      -0.091000
      9 C10          5.1090     1.6260    -1.0400 ca         1 5MQ      -0.118000
     10 C11          5.5220     2.9040    -0.6910 ca         1 5MQ      -0.091000
     11 C12          4.6200     3.8290    -0.1670 ca         1 5MQ      -0.083300
     12 C13          5.0600     5.2210     0.1810 c3         1 5MQ      -0.047800
     13 C14          3.2960     3.4390     0.0000 ca         1 5MQ      -0.058000
     14 C15         -1.2880     0.4690     0.2560 ca         1 5MQ      -0.128000
     15 O            0.5690     2.6820    -0.2080 o          1 5MQ      -0.589100
     16 C16         -2.4550    -0.2800     0.4130 cp         1 5MQ       0.002000
     17 C19         -3.7540     0.4190     0.4710 cp         1 5MQ      -0.064000
     18 C26         -3.9110     1.5970     1.2140 ca         1 5MQ      -0.063000
     19 C25         -5.1160     2.2800     1.2690 ca         1 5MQ      -0.148000
     20 C24         -6.2280     1.8040     0.5750 ca         1 5MQ      -0.053000
     21 C23         -6.0970     0.6490    -0.1690 ca         1 5MQ      -0.174300
     22 C22         -7.0860    -0.1230    -0.9930 c5         1 5MQ      -0.053100
     23 C21         -6.1640    -1.1100    -1.7220 c5         1 5MQ       0.147600
     24 O1          -4.9180    -1.1200    -0.9990 os         1 5MQ      -0.331100
     25 C20         -4.8810    -0.0230    -0.2140 ca         1 5MQ       0.138100
     26 C17         -2.3640    -1.6620     0.5460 ca         1 5MQ      -0.106000
     27 C18         -1.1240    -2.2830     0.5110 ca         1 5MQ      -0.113000
     28 C2           1.5830    -3.2080     1.2440 c6         1 5MQ       0.177300
     29 C1           3.0530    -3.5790     1.2160 c6         1 5MQ       0.162300
     30 C3           1.7300    -2.5270    -1.0550 c6         1 5MQ       0.177300
     31 N            3.4470    -3.9870    -0.1170 n3         1 5MQ      -0.718600
     32 C            4.8220    -4.4310    -0.1600 c3         1 5MQ       0.154100
     33 H1           3.4570    -3.2700    -2.0710 h1         1 5MQ       0.036450
     34 H2           3.8170    -2.0380    -0.8600 h1         1 5MQ       0.036450
     35 H3           1.9570    -0.1170     0.2550 hn         1 5MQ       0.181000
     36 H4           3.4800     0.2550    -1.1670 ha         1 5MQ       0.115000
     37 H5           5.8180     0.9240    -1.4590 ha         1 5MQ       0.115000
     38 H6           6.5580     3.1870    -0.8310 ha         1 5MQ       0.113000
     39 H7           5.0030     5.8750    -0.6910 hc         1 5MQ       0.045033
     40 H8           4.4310     5.6560     0.9560 hc         1 5MQ       0.045033
     41 H9           6.0910     5.2380     0.5320 hc         1 5MQ       0.045033
     42 H10          2.5810     4.1450     0.4040 ha         1 5MQ       0.133000
     43 H11         -1.3600     1.5400     0.1520 ha         1 5MQ       0.151000
     44 H12         -3.0640     1.9760     1.7720 ha         1 5MQ       0.122000
     45 H13         -5.1910     3.1840     1.8590 ha         1 5MQ       0.117000
     46 H14         -7.1720     2.3320     0.6190 ha         1 5MQ       0.115000
     47 H15         -7.8120    -0.6350    -0.3560 hc         1 5MQ       0.061700
     48 H16         -6.5490    -2.1270    -1.7500 h1         1 5MQ       0.056700
     49 H17         -3.2510    -2.2620     0.6890 ha         1 5MQ       0.125000
     50 H18         -1.0680    -3.3590     0.6110 ha         1 5MQ       0.114000
     51 H19          1.3090    -2.8700     2.2450 h1         1 5MQ       0.046700
     52 H20          0.9890    -4.1060     1.0210 h1         1 5MQ       0.046700
     53 H21          3.6510    -2.7250     1.5780 h1         1 5MQ       0.036450
     54 H22          3.2200    -4.4070     1.9080 h1         1 5MQ       0.036450
     55 H23          1.5790    -1.6880    -1.7370 h1         1 5MQ       0.046700
     56 H24          1.1140    -3.3610    -1.4230 h1         1 5MQ       0.046700
     57 H26          5.5420    -3.6390     0.1010 h1         1 5MQ       0.031367
     58 H27          4.9690    -5.2560     0.5380 h1         1 5MQ       0.031367
     59 H28          5.0680    -4.7890    -1.1600 h1         1 5MQ       0.031367
     60 H29         -7.6440     0.4990    -1.6920 hc         1 5MQ       0.061700
     61 H30         -5.9650    -0.7830    -2.7450 h1         1 5MQ       0.056700
@<TRIPOS>BOND
     1     1    30 1   
     2     1    31 1   
     3     1    33 1   
     4     1    34 1   
     5     2     3 ar  
     6     2     4 1   
     7     2    27 ar  
     8     3     7 1   
     9     3    14 ar  
    10     4    28 1   
    11     4    30 1   
    12     5     6 1   
    13     5     7 1   
    14     5    15 2   
    15     6     8 ar  
    16     6    13 ar  
    17     7    35 1   
    18     8     9 ar  
    19     8    36 1   
    20     9    10 ar  
    21     9    37 1   
    22    10    11 ar  
    23    10    38 1   
    24    11    12 1   
    25    11    13 ar  
    26    12    39 1   
    27    12    40 1   
    28    12    41 1   
    29    13    42 1   
    30    14    16 ar  
    31    14    43 1   
    32    16    17 1   
    33    16    26 ar  
    34    17    18 ar  
    35    17    25 ar  
    36    18    19 ar  
    37    18    44 1   
    38    19    20 ar  
    39    19    45 1   
    40    20    21 ar  
    41    20    46 1   
    42    21    22 1   
    43    21    25 ar  
    44    22    23 1   
    45    22    47 1   
    46    22    60 1   
    47    23    24 1   
    48    23    48 1   
    49    23    61 1   
    50    24    25 1   
    51    26    27 ar  
    52    26    49 1   
    53    27    50 1   
    54    28    29 1   
    55    28    51 1   
    56    28    52 1   
    57    29    31 1   
    58    29    53 1   
    59    29    54 1   
    60    30    55 1   
    61    30    56 1   
    62    31    32 1   
    63    32    57 1   
    64    32    58 1   
    65    32    59 1   
@<TRIPOS>SUBSTRUCTURE
     1 5MQ         1 TEMP              0 ****  ****    0 ROOT
