@<TRIPOS>MOLECULE
5MQ
   61    65     1     0     0
SMALL
No Charge or Current Charge


@<TRIPOS>ATOM
      1 C4           3.2890    -2.8650    -1.2270 c6         1 5MQ       0.162300
      2 C5          -0.0450    -1.6060     0.2120 ca         1 5MQ       0.175000
      3 C6          -0.1070    -0.1940     0.1930 ca         1 5MQ      -0.010000
      4 N1           1.2040    -2.2650     0.1060 nh         1 5MQ      -0.787400
      5 C7           1.4520     1.8460    -0.0530 c          1 5MQ       0.621700
      6 C8           2.9400     2.1560    -0.0750 ca         1 5MQ      -0.147600
      7 N2           1.1270     0.5070     0.1010 ns         1 5MQ      -0.140000
      8 C9           3.9220     1.1520     0.1210 ca         1 5MQ      -0.091000
      9 C10          5.2880     1.4780     0.0890 ca         1 5MQ      -0.118000
     10 C11          5.6970     2.8010    -0.1350 ca         1 5MQ      -0.091000
     11 C12          4.7390     3.8110    -0.3260 ca         1 5MQ      -0.083300
     12 C13          5.1780     5.2470    -0.5710 c3         1 5MQ      -0.047800
     13 C14          3.3700     3.4850    -0.2960 ca         1 5MQ      -0.058000
     14 C15         -1.3610     0.4490     0.2930 ca         1 5MQ      -0.128000
     15 O            0.6140     2.7340    -0.1690 o          1 5MQ      -0.589100
     16 C16         -2.5630    -0.2930     0.4000 cp         1 5MQ       0.002000
     17 C19         -3.8830     0.4050     0.5160 cp         1 5MQ      -0.064000
     18 C26         -4.0340     1.5520     1.3420 ca         1 5MQ      -0.063000
     19 C25         -5.2760     2.2140     1.4590 ca         1 5MQ      -0.148000
     20 C24         -6.4010     1.7500     0.7500 ca         1 5MQ      -0.053000
     21 C23         -6.2530     0.6250    -0.0720 ca         1 5MQ      -0.174300
     22 C22         -7.2920    -0.0450    -0.9120 c5         1 5MQ      -0.053100
     23 C21         -6.3350    -0.9620    -1.7600 c5         1 5MQ       0.147600
     24 O1          -5.0620    -1.0860    -1.0390 os         1 5MQ      -0.331100
     25 C20         -5.0410    -0.0180    -0.1830 ca         1 5MQ       0.138100
     26 C17         -2.4730    -1.7040     0.4180 ca         1 5MQ      -0.106000
     27 C18         -1.2310    -2.3520     0.3250 ca         1 5MQ      -0.113000
     28 C2           1.5790    -3.3220     1.0970 c6         1 5MQ       0.177300
     29 C1           3.1150    -3.6180     1.0960 c6         1 5MQ       0.162300
     30 C3           1.7580    -2.5440    -1.2560 c6         1 5MQ       0.177300
     31 N            3.6370    -3.9550    -0.2640 n3         1 5MQ      -0.718600
     32 C            5.0800    -4.2720    -0.2590 c3         1 5MQ       0.154100
     33 H1           3.6060    -3.1410    -2.2430 h1         1 5MQ       0.036450
     34 H2           3.8320    -1.9450    -0.9640 h1         1 5MQ       0.036450
     35 H3           1.9240    -0.1120     0.1550 hn         1 5MQ       0.181000
     36 H4           3.6490     0.1160     0.3050 ha         1 5MQ       0.115000
     37 H5           6.0340     0.7000     0.2400 ha         1 5MQ       0.115000
     38 H6           6.7580     3.0400    -0.1590 ha         1 5MQ       0.113000
     39 H7           5.2380     5.4590    -1.6450 hc         1 5MQ       0.045033
     40 H8           4.4740     5.9610    -0.1270 hc         1 5MQ       0.045033
     41 H9           6.1640     5.4460    -0.1350 hc         1 5MQ       0.045033
     42 H10          2.6370     4.2750    -0.4500 ha         1 5MQ       0.133000
     43 H11         -1.4290     1.5310     0.2850 ha         1 5MQ       0.151000
     44 H12         -3.1830     1.9240     1.9090 ha         1 5MQ       0.122000
     45 H13         -5.3660     3.0860     2.1030 ha         1 5MQ       0.117000
     46 H14         -7.3610     2.2550     0.8380 ha         1 5MQ       0.115000
     47 H15         -7.9950    -0.6330    -0.3110 hc         1 5MQ       0.061700
     48 H16         -6.7570    -1.9590    -1.9470 h1         1 5MQ       0.056700
     49 H17         -3.3750    -2.3030     0.5180 ha         1 5MQ       0.125000
     50 H18         -1.1920    -3.4370     0.3350 ha         1 5MQ       0.114000
     51 H19          1.2840    -3.0120     2.1100 h1         1 5MQ       0.046700
     52 H20          1.0430    -4.2550     0.8700 h1         1 5MQ       0.046700
     53 H21          3.6390    -2.7340     1.4900 h1         1 5MQ       0.036450
     54 H22          3.3120    -4.4440     1.7940 h1         1 5MQ       0.036450
     55 H23          1.5950    -1.6810    -1.9170 h1         1 5MQ       0.046700
     56 H24          1.2280    -3.3990    -1.7010 h1         1 5MQ       0.046700
     57 H26          5.6710    -3.4050     0.0660 h1         1 5MQ       0.031367
     58 H27          5.2910    -5.1070     0.4220 h1         1 5MQ       0.031367
     59 H28          5.4170    -4.5610    -1.2640 h1         1 5MQ       0.031367
     60 H29         -7.8660     0.6480    -1.5360 hc         1 5MQ       0.061700
     61 H30         -6.1250    -0.4950    -2.7310 h1         1 5MQ       0.056700
@<TRIPOS>BOND
     1     1    30 1   
     2     1    31 1   
     3     1    33 1   
     4     1    34 1   
     5     2     3 ar  
     6     2     4 1   
     7     2    27 ar  
     8     3     7 1   
     9     3    14 ar  
    10     4    28 1   
    11     4    30 1   
    12     5     6 1   
    13     5     7 1   
    14     5    15 2   
    15     6     8 ar  
    16     6    13 ar  
    17     7    35 1   
    18     8     9 ar  
    19     8    36 1   
    20     9    10 ar  
    21     9    37 1   
    22    10    11 ar  
    23    10    38 1   
    24    11    12 1   
    25    11    13 ar  
    26    12    39 1   
    27    12    40 1   
    28    12    41 1   
    29    13    42 1   
    30    14    16 ar  
    31    14    43 1   
    32    16    17 1   
    33    16    26 ar  
    34    17    18 ar  
    35    17    25 ar  
    36    18    19 ar  
    37    18    44 1   
    38    19    20 ar  
    39    19    45 1   
    40    20    21 ar  
    41    20    46 1   
    42    21    22 1   
    43    21    25 ar  
    44    22    23 1   
    45    22    47 1   
    46    22    60 1   
    47    23    24 1   
    48    23    48 1   
    49    23    61 1   
    50    24    25 1   
    51    26    27 ar  
    52    26    49 1   
    53    27    50 1   
    54    28    29 1   
    55    28    51 1   
    56    28    52 1   
    57    29    31 1   
    58    29    53 1   
    59    29    54 1   
    60    30    55 1   
    61    30    56 1   
    62    31    32 1   
    63    32    57 1   
    64    32    58 1   
    65    32    59 1   
@<TRIPOS>SUBSTRUCTURE
     1 5MQ         1 TEMP              0 ****  ****    0 ROOT
