@<TRIPOS>MOLECULE
5MR
   68    72     1     0     0
SMALL
bcc


@<TRIPOS>ATOM
      1 CD2          5.2990     1.5630     2.1150 ca         1 5MR      -0.097800
      2 CE3          6.0900     0.6210     1.4420 ca         1 5MR      -0.083000
      3 CZ3          7.2800     0.2170     2.0130 ca         1 5MR      -0.161000
      4 CH2          7.7060     0.7400     3.2460 ca         1 5MR      -0.113000
      5 CZ2          6.9520     1.6740     3.9290 ca         1 5MR      -0.141000
      6 CE2          5.7500     2.0770     3.3510 ca         1 5MR      -0.045200
      7 NE1          4.8130     2.9680     3.7850 na         1 5MR      -0.172400
      8 CD1          3.7940     3.0330     2.8790 cc         1 5MR      -0.096100
      9 CG           4.0390     2.1890     1.8320 cd         1 5MR      -0.141400
     10 CB           3.1690     1.9610     0.6390 c3         1 5MR      -0.008200
     11 CA           2.1550     0.8150     0.8040 c3         1 5MR       0.035700
     12 C            1.3860     0.6930    -0.5080 c          1 5MR       0.683100
     13 O            1.8820     0.1770    -1.4970 o          1 5MR      -0.610100
     14 NAA          0.1860     1.2870    -0.5040 nt         1 5MR      -0.674000
     15 N            2.8370    -0.4160     1.1040 ns         1 5MR      -0.531900
     16 CBD          2.1340    -1.5540     1.2990 c          1 5MR       0.687100
     17 OAC          0.9680    -1.6560     0.9600 o          1 5MR      -0.607100
     18 CBL          2.9400    -2.7170     1.8710 c3         1 5MR      -0.091700
     19 CAX          3.5920    -2.3780     3.2200 c3         1 5MR      -0.284600
     20 PBN          2.3950    -1.8790     4.5300 p5         1 5MR       1.142700
     21 OAE          1.5640    -0.7380     3.9870 o          1 5MR      -0.823500
     22 OAD          1.7170    -3.1120     5.0880 o          1 5MR      -0.823500
     23 CBG          3.5210    -1.2060     5.8090 ca         1 5MR      -0.259500
     24 CAP          3.9660     0.1110     5.7140 ca         1 5MR      -0.065500
     25 CAJ          4.8210     0.6400     6.6710 ca         1 5MR      -0.167500
     26 CAG          5.2390    -0.1440     7.7390 ca         1 5MR      -0.132000
     27 CAK          4.8010    -1.4580     7.8440 ca         1 5MR      -0.167500
     28 CAQ          3.9460    -1.9840     6.8830 ca         1 5MR      -0.065500
     29 CAV          2.0860    -3.9880     1.9530 c3         1 5MR      -0.112700
     30 CBF          1.7950    -4.5870     0.6270 cc         1 5MR       0.322000
     31 CAU          0.6770    -4.6990    -0.1270 cd         1 5MR      -0.376600
     32 OBB          2.8110    -5.1720    -0.0200 os         1 5MR      -0.123100
     33 NAY          2.3830    -5.6750    -1.2070 nc         1 5MR      -0.392300
     34 CBH          1.1070    -5.4030    -1.2820 cd         1 5MR       0.385800
     35 CBE          0.3160    -5.8120    -2.4470 ca         1 5MR      -0.115500
     36 CAN         -1.0100    -5.4010    -2.5730 ca         1 5MR      -0.100500
     37 CAH         -1.7660    -5.7840    -3.6720 ca         1 5MR      -0.141000
     38 CAF         -1.2060    -6.5840    -4.6580 ca         1 5MR      -0.130000
     39 CAI          0.1160    -6.9970    -4.5400 ca         1 5MR      -0.141000
     40 CAO          0.8720    -6.6160    -3.4450 ca         1 5MR      -0.100500
     41 HE3          5.7800     0.2180     0.4840 ha         1 5MR       0.142000
     42 HZ3          7.8990    -0.5100     1.5040 ha         1 5MR       0.125000
     43 HH2          8.6450     0.4040     3.6680 ha         1 5MR       0.121000
     44 HZ2          7.2810     2.0740     4.8790 ha         1 5MR       0.126000
     45 HNE1         4.8710     3.5200     4.6250 hn         1 5MR       0.295700
     46 HD1          2.9560     3.6930     3.0420 h4         1 5MR       0.160000
     47 HB1          2.6050     2.8690     0.4160 hc         1 5MR       0.050700
     48 HB2          3.7900     1.7570    -0.2370 hc         1 5MR       0.050700
     49 HA           1.4700     1.0650     1.6230 h1         1 5MR       0.078700
     50 HAA1        -0.3770     1.3090    -1.3390 hn         1 5MR       0.306500
     51 HAA2        -0.2310     1.6350     0.3420 hn         1 5MR       0.306500
     52 HN           3.7000    -0.3210     1.6150 hn         1 5MR       0.318500
     53 HBL          3.7570    -2.8990     1.1630 hc         1 5MR       0.051700
     54 HAX1         4.3290    -1.5780     3.0930 hc         1 5MR       0.051700
     55 HAX2         4.1630    -3.2450     3.5590 hc         1 5MR       0.051700
     56 HAP          3.6360     0.7250     4.8850 ha         1 5MR       0.142000
     57 HAJ          5.1590     1.6660     6.5880 ha         1 5MR       0.102000
     58 HAG          5.9030     0.2690     8.4880 ha         1 5MR       0.102000
     59 HAK          5.1250    -2.0720     8.6750 ha         1 5MR       0.102000
     60 HAQ          3.6000    -3.0060     6.9750 ha         1 5MR       0.142000
     61 HAV1         1.1430    -3.7900     2.4590 hc         1 5MR       0.090200
     62 HAV2         2.6180    -4.7230     2.5620 hc         1 5MR       0.090200
     63 HAU         -0.3040    -4.3300     0.1140 ha         1 5MR       0.178000
     64 HAN         -1.4620    -4.7740    -1.8160 ha         1 5MR       0.144500
     65 HAH         -2.7930    -5.4550    -3.7560 ha         1 5MR       0.124000
     66 HAF         -1.7960    -6.8860    -5.5130 ha         1 5MR       0.120000
     67 HAI          0.5590    -7.6220    -5.3050 ha         1 5MR       0.124000
     68 HAO          1.8980    -6.9480    -3.3610 ha         1 5MR       0.144500
@<TRIPOS>BOND
     1     1     2 ar  
     2     1     6 ar  
     3     1     9 1   
     4     2     3 ar  
     5     2    41 1   
     6     3     4 ar  
     7     3    42 1   
     8     4     5 ar  
     9     4    43 1   
    10     5     6 ar  
    11     5    44 1   
    12     6     7 1   
    13     7     8 1   
    14     7    45 1   
    15     8     9 2   
    16     8    46 1   
    17     9    10 1   
    18    10    11 1   
    19    10    47 1   
    20    10    48 1   
    21    11    12 1   
    22    11    15 1   
    23    11    49 1   
    24    12    13 2   
    25    12    14 1   
    26    14    50 1   
    27    14    51 1   
    28    15    16 1   
    29    15    52 1   
    30    16    17 2   
    31    16    18 1   
    32    18    19 1   
    33    18    29 1   
    34    18    53 1   
    35    19    20 1   
    36    19    54 1   
    37    19    55 1   
    38    20    21 1   
    39    20    22 1   
    40    20    23 1   
    41    23    24 ar  
    42    23    28 ar  
    43    24    25 ar  
    44    24    56 1   
    45    25    26 ar  
    46    25    57 1   
    47    26    27 ar  
    48    26    58 1   
    49    27    28 ar  
    50    27    59 1   
    51    28    60 1   
    52    29    30 1   
    53    29    61 1   
    54    29    62 1   
    55    30    31 2   
    56    30    32 1   
    57    31    34 1   
    58    31    63 1   
    59    32    33 1   
    60    33    34 2   
    61    34    35 1   
    62    35    36 ar  
    63    35    40 ar  
    64    36    37 ar  
    65    36    64 1   
    66    37    38 ar  
    67    37    65 1   
    68    38    39 ar  
    69    38    66 1   
    70    39    40 ar  
    71    39    67 1   
    72    40    68 1   
@<TRIPOS>SUBSTRUCTURE
     1 5MR         1 TEMP              0 ****  ****    0 ROOT
