@<TRIPOS>MOLECULE
5MR
   68    72     1     0     0
SMALL
No Charge or Current Charge


@<TRIPOS>ATOM
      1 CD2          4.3780     1.5820     1.8070 ca         1 5MR      -0.097800
      2 CE3          5.5210     0.8210     1.5210 ca         1 5MR      -0.065000
      3 CZ3          6.5120     0.7270     2.5220 ca         1 5MR      -0.143000
      4 CH2          6.3430     1.3870     3.7640 ca         1 5MR      -0.095000
      5 CZ2          5.1810     2.1490     4.0150 ca         1 5MR      -0.123000
      6 CE2          4.2140     2.2200     3.0030 ca         1 5MR      -0.045200
      7 NE1          3.0020     2.8860     3.0020 na         1 5MR      -0.222700
      8 CD1          2.3410     2.6850     1.7710 cc         1 5MR      -0.146100
      9 CG           3.1920     1.8720     1.0300 cd         1 5MR      -0.141400
     10 CB           2.9150     1.3690    -0.3670 c3         1 5MR      -0.008200
     11 CA           2.1340     0.0290    -0.3940 c3         1 5MR       0.035700
     12 C            1.9030    -0.4850    -1.8460 c          1 5MR       0.616100
     13 O            2.3270    -1.5500    -2.2680 o          1 5MR      -0.610100
     14 NAA          1.1940     0.3220    -2.6700 nt         1 5MR      -0.607000
     15 N            2.8090    -1.0040     0.4250 ns         1 5MR      -0.464900
     16 CBD          2.3460    -1.4950     1.6270 c          1 5MR       0.620100
     17 OAC          1.2580    -1.1730     2.0860 o          1 5MR      -0.607100
     18 CBL          3.2780    -2.5480     2.2930 c3         1 5MR      -0.091700
     19 CAX          3.9190    -2.0880     3.6460 c3         1 5MR      -0.442400
     20 PBN          2.9000    -1.7740     5.1580 p5         1 5MR       1.300500
     21 OAE          2.1280    -0.5010     5.0190 o          1 5MR      -0.823500
     22 OAD          2.0500    -2.9730     5.4400 o          1 5MR      -0.823500
     23 CBG          4.1700    -1.5930     6.4640 ca         1 5MR      -0.259500
     24 CAP          4.6610    -0.3170     6.8060 ca         1 5MR      -0.047500
     25 CAJ          5.6500    -0.1810     7.7950 ca         1 5MR      -0.149500
     26 CAG          6.1550    -1.3180     8.4480 ca         1 5MR      -0.114000
     27 CAK          5.6710    -2.5920     8.1090 ca         1 5MR      -0.149500
     28 CAQ          4.6820    -2.7320     7.1190 ca         1 5MR      -0.047500
     29 CAV          2.5890    -3.9350     2.3690 c3         1 5MR      -0.112700
     30 CBF          2.2100    -4.4630     1.0130 cc         1 5MR       0.212300
     31 CAU          1.1160    -4.2470     0.2390 cd         1 5MR      -0.228000
     32 OBB          3.0630    -5.3010     0.3410 os         1 5MR      -0.078700
     33 NAY          2.4700    -5.6290    -0.9350 nc         1 5MR      -0.392300
     34 CBH          1.3190    -4.9720    -0.9510 cd         1 5MR       0.320500
     35 CBE          0.3960    -5.0380    -2.1080 ca         1 5MR      -0.115500
     36 CAN         -0.6660    -4.1140    -2.2330 ca         1 5MR      -0.082500
     37 CAH         -1.5290    -4.1600    -3.3420 ca         1 5MR      -0.123000
     38 CAF         -1.3390    -5.1220    -4.3450 ca         1 5MR      -0.112000
     39 CAI         -0.2800    -6.0370    -4.2410 ca         1 5MR      -0.123000
     40 CAO          0.5850    -5.9930    -3.1340 ca         1 5MR      -0.082500
     41 HE3          5.6410     0.3180     0.5640 ha         1 5MR       0.124000
     42 HZ3          7.4110     0.1430     2.3380 ha         1 5MR       0.107000
     43 HH2          7.1120     1.3060     4.5290 ha         1 5MR       0.103000
     44 HZ2          5.0420     2.6620     4.9630 ha         1 5MR       0.108000
     45 HNE1         2.6420     3.4310     3.7780 hn         1 5MR       0.346000
     46 HD1          1.3690     3.1070     1.5380 h4         1 5MR       0.210000
     47 HB1          2.3510     2.1310    -0.9200 hc         1 5MR       0.050700
     48 HB2          3.8600     1.2420    -0.9100 hc         1 5MR       0.050700
     49 HA           1.1360     0.2170     0.0230 h1         1 5MR       0.078700
     50 HAA1         1.0240     0.0260    -3.6200 hn         1 5MR       0.306500
     51 HAA2         0.8320     1.2030    -2.3350 hn         1 5MR       0.306500
     52 HN           3.6940    -1.3700     0.0980 hn         1 5MR       0.318500
     53 HBL          4.1340    -2.6740     1.6170 hc         1 5MR       0.051700
     54 HAX1         4.4610    -1.1510     3.4830 hc         1 5MR       0.051700
     55 HAX2         4.6650    -2.8260     3.9590 hc         1 5MR       0.051700
     56 HAP          4.2780     0.5700     6.3040 ha         1 5MR       0.124000
     57 HAJ          6.0260     0.8050     8.0540 ha         1 5MR       0.084000
     58 HAG          6.9210    -1.2120     9.2130 ha         1 5MR       0.084000
     59 HAK          6.0630    -3.4730     8.6120 ha         1 5MR       0.084000
     60 HAQ          4.3170    -3.7250     6.8600 ha         1 5MR       0.124000
     61 HAV1         1.6870    -3.8700     2.9870 hc         1 5MR       0.090200
     62 HAV2         3.2570    -4.6510     2.8630 hc         1 5MR       0.090200
     63 HAU          0.2660    -3.6290     0.4970 ha         1 5MR       0.160000
     64 HAN         -0.8290    -3.3490    -1.4780 ha         1 5MR       0.126500
     65 HAH         -2.3450    -3.4440    -3.4250 ha         1 5MR       0.106000
     66 HAF         -2.0080    -5.1560    -5.2030 ha         1 5MR       0.102000
     67 HAI         -0.1270    -6.7810    -5.0200 ha         1 5MR       0.106000
     68 HAO          1.4000    -6.7120    -3.0770 ha         1 5MR       0.126500
@<TRIPOS>BOND
     1     1     2 ar  
     2     1     6 ar  
     3     1     9 1   
     4     2     3 ar  
     5     2    41 1   
     6     3     4 ar  
     7     3    42 1   
     8     4     5 ar  
     9     4    43 1   
    10     5     6 ar  
    11     5    44 1   
    12     6     7 1   
    13     7     8 1   
    14     7    45 1   
    15     8     9 2   
    16     8    46 1   
    17     9    10 1   
    18    10    11 1   
    19    10    47 1   
    20    10    48 1   
    21    11    12 1   
    22    11    15 1   
    23    11    49 1   
    24    12    13 2   
    25    12    14 1   
    26    14    50 1   
    27    14    51 1   
    28    15    16 1   
    29    15    52 1   
    30    16    17 2   
    31    16    18 1   
    32    18    19 1   
    33    18    29 1   
    34    18    53 1   
    35    19    20 1   
    36    19    54 1   
    37    19    55 1   
    38    20    21 1   
    39    20    22 1   
    40    20    23 1   
    41    23    24 ar  
    42    23    28 ar  
    43    24    25 ar  
    44    24    56 1   
    45    25    26 ar  
    46    25    57 1   
    47    26    27 ar  
    48    26    58 1   
    49    27    28 ar  
    50    27    59 1   
    51    28    60 1   
    52    29    30 1   
    53    29    61 1   
    54    29    62 1   
    55    30    31 2   
    56    30    32 1   
    57    31    34 1   
    58    31    63 1   
    59    32    33 1   
    60    33    34 2   
    61    34    35 1   
    62    35    36 ar  
    63    35    40 ar  
    64    36    37 ar  
    65    36    64 1   
    66    37    38 ar  
    67    37    65 1   
    68    38    39 ar  
    69    38    66 1   
    70    39    40 ar  
    71    39    67 1   
    72    40    68 1   
@<TRIPOS>SUBSTRUCTURE
     1 5MR         1 TEMP              0 ****  ****    0 ROOT
