@<TRIPOS>MOLECULE
5MS
   43    45     1     0     0
SMALL
abcg2


@<TRIPOS>ATOM
      1 C            3.5640    -1.7200     0.0040 ca         1 5MS      -0.134300
      2 C1           2.4770    -2.5470     0.2570 ca         1 5MS      -0.072000
      3 C2           1.1660    -2.0950     0.2490 ca         1 5MS      -0.128000
      4 C3           0.9040    -0.7570    -0.0450 ca         1 5MS       0.326000
      5 C4           1.9800     0.0860    -0.3320 ca         1 5MS      -0.155000
      6 C5           3.2840    -0.3820    -0.2930 ca         1 5MS       0.274000
      7 N           -0.3610    -0.1740    -0.0910 nu         1 5MS      -0.932900
      8 C6          -1.6000    -0.7060     0.0520 ca         1 5MS       0.385900
      9 C7          -2.7140     0.1460    -0.0570 ca         1 5MS      -0.276000
     10 C8          -3.9660    -0.4130     0.0860 cp         1 5MS       0.216500
     11 N9          -4.1050    -1.7290     0.3250 nb         1 5MS      -0.220000
     12 C10         -3.0010    -2.4360     0.4120 ca         1 5MS       0.166900
     13 N11         -1.7540    -2.0050     0.2900 nb         1 5MS      -0.254000
     14 C12         -5.2130     0.3780    -0.0140 cp         1 5MS      -0.163500
     15 C13         -6.4470    -0.2560     0.1390 ca         1 5MS      -0.073000
     16 C14         -7.6300     0.4630     0.0500 ca         1 5MS      -0.122500
     17 C15         -7.6010     1.8290    -0.1950 ca         1 5MS      -0.090000
     18 C16         -6.3790     2.4700    -0.3490 ca         1 5MS      -0.122500
     19 C17         -5.1970     1.7530    -0.2600 ca         1 5MS      -0.073000
     20 C18          4.9660    -2.2510     0.0450 c3         1 5MS      -0.046800
     21 N19          4.3380     0.5130    -0.6080 nu         1 5MS      -0.887100
     22 S            4.7490     1.7580     0.4140 s6         1 5MS       1.197100
     23 C20          5.3230     1.0080     1.9190 c3         1 5MS      -0.381100
     24 O            5.8660     2.4300    -0.2280 o          1 5MS      -0.529500
     25 O21          3.5380     2.5020     0.7140 o          1 5MS      -0.529500
     26 H1           2.6570    -3.5920     0.4810 ha         1 5MS       0.117000
     27 H2           0.3630    -2.7810     0.4600 ha         1 5MS       0.158000
     28 H4           1.7980     1.1170    -0.6060 ha         1 5MS       0.142000
     29 HN          -0.3520     0.8180    -0.2730 hn         1 5MS       0.503000
     30 H7          -2.5680     1.2000    -0.2470 ha         1 5MS       0.132000
     31 H10         -3.1180    -3.4970     0.6050 h5         1 5MS       0.047100
     32 H13         -6.4790    -1.3200     0.3280 ha         1 5MS       0.124500
     33 H14         -8.5760    -0.0480     0.1740 ha         1 5MS       0.115500
     34 H15         -8.5230     2.3910    -0.2680 ha         1 5MS       0.114000
     35 H16         -6.3440     3.5350    -0.5390 ha         1 5MS       0.115500
     36 H17         -4.2640     2.2850    -0.3870 ha         1 5MS       0.124500
     37 H18          5.4970    -2.1110    -0.8990 hc         1 5MS       0.042367
     38 H18A         5.5640    -1.7720     0.8230 hc         1 5MS       0.042367
     39 H18B         4.9650    -3.3190     0.2540 hc         1 5MS       0.042367
     40 HN19         5.1590     0.0860    -1.0230 hn         1 5MS       0.494000
     41 H20          6.2120     0.4190     1.7080 h1         1 5MS       0.103367
     42 H20A         5.5640     1.8080     2.6180 h1         1 5MS       0.103367
     43 H20B         4.5390     0.3800     2.3380 h1         1 5MS       0.103367
@<TRIPOS>BOND
     1     1     2 ar  
     2     1     6 ar  
     3     1    20 1   
     4     2     3 ar  
     5     2    26 1   
     6     3     4 ar  
     7     3    27 1   
     8     4     5 ar  
     9     4     7 1   
    10     5     6 ar  
    11     5    28 1   
    12     6    21 1   
    13     7     8 1   
    14     7    29 1   
    15     8     9 ar  
    16     8    13 ar  
    17     9    10 ar  
    18     9    30 1   
    19    10    11 ar  
    20    10    14 1   
    21    11    12 ar  
    22    12    13 ar  
    23    12    31 1   
    24    14    15 ar  
    25    14    19 ar  
    26    15    16 ar  
    27    15    32 1   
    28    16    17 ar  
    29    16    33 1   
    30    17    18 ar  
    31    17    34 1   
    32    18    19 ar  
    33    18    35 1   
    34    19    36 1   
    35    20    37 1   
    36    20    38 1   
    37    20    39 1   
    38    21    22 1   
    39    21    40 1   
    40    22    23 1   
    41    22    24 2   
    42    22    25 2   
    43    23    41 1   
    44    23    42 1   
    45    23    43 1   
@<TRIPOS>SUBSTRUCTURE
     1 5MS         1 TEMP              0 ****  ****    0 ROOT
