@<TRIPOS>MOLECULE
5MS
   43    45     1     0     0
SMALL
No Charge or Current Charge


@<TRIPOS>ATOM
      1 C            3.6380    -2.0150     0.2150 ca         1 5MS      -0.134300
      2 C1           2.5100    -2.8060     0.5020 ca         1 5MS      -0.072000
      3 C2           1.2240    -2.2470     0.4650 ca         1 5MS      -0.128000
      4 C3           1.0450    -0.8950     0.1300 ca         1 5MS       0.326000
      5 C4           2.1700    -0.1030    -0.1390 ca         1 5MS      -0.155000
      6 C5           3.4680    -0.6450    -0.0990 ca         1 5MS       0.274000
      7 N           -0.2220    -0.2990     0.0890 nu         1 5MS      -0.932900
      8 C6          -1.5080    -0.7700    -0.1490 ca         1 5MS       0.385900
      9 C7          -2.6050     0.0690     0.0740 ca         1 5MS      -0.276000
     10 C8          -3.9020    -0.4290    -0.2020 cp         1 5MS       0.216500
     11 N9          -4.0440    -1.6880    -0.6640 nb         1 5MS      -0.220000
     12 C10         -2.9260    -2.4160    -0.8590 ca         1 5MS       0.166900
     13 N11         -1.6610    -2.0140    -0.6290 nb         1 5MS      -0.254000
     14 C12         -5.1550     0.3810     0.0050 cp         1 5MS      -0.163500
     15 C13         -6.4240    -0.2470     0.1460 ca         1 5MS      -0.073000
     16 C14         -7.5940     0.5080     0.3390 ca         1 5MS      -0.122500
     17 C15         -7.5290     1.9080     0.3930 ca         1 5MS      -0.090000
     18 C16         -6.2910     2.5530     0.2520 ca         1 5MS      -0.122500
     19 C17         -5.1190     1.8010     0.0590 ca         1 5MS      -0.073000
     20 C18          5.0240    -2.6600     0.2640 c3         1 5MS      -0.046800
     21 N19          4.5960     0.1310    -0.3760 nu         1 5MS      -0.887100
     22 S            4.8530     1.7520    -0.1330 s6         1 5MS       1.197100
     23 C20          4.4260     2.0310     1.5730 c3         1 5MS      -0.381100
     24 O            6.2960     1.9280    -0.2920 o          1 5MS      -0.529500
     25 O21          3.9150     2.4670    -1.0000 o          1 5MS      -0.529500
     26 H1           2.6270    -3.8560     0.7610 ha         1 5MS       0.117000
     27 H2           0.3710    -2.8700     0.7150 ha         1 5MS       0.158000
     28 H4           2.0180     0.9370    -0.3990 ha         1 5MS       0.142000
     29 HN          -0.1930     0.7160     0.1840 hn         1 5MS       0.503000
     30 H7          -2.4560     1.0680     0.4670 ha         1 5MS       0.132000
     31 H10         -3.0590    -3.4260    -1.2410 h5         1 5MS       0.047100
     32 H13         -6.5080    -1.3310     0.1150 ha         1 5MS       0.124500
     33 H14         -8.5520     0.0040     0.4470 ha         1 5MS       0.115500
     34 H15         -8.4350     2.4910     0.5420 ha         1 5MS       0.114000
     35 H16         -6.2390     3.6390     0.2870 ha         1 5MS       0.115500
     36 H17         -4.1810     2.3350    -0.0630 ha         1 5MS       0.124500
     37 H18          5.5390    -2.5680    -0.7000 hc         1 5MS       0.042367
     38 H18A         5.6510    -2.1920     1.0330 hc         1 5MS       0.042367
     39 H18B         4.9670    -3.7290     0.4990 hc         1 5MS       0.042367
     40 HN19         5.5000    -0.3010    -0.2490 hn         1 5MS       0.494000
     41 H20          5.0630     1.3830     2.1840 h1         1 5MS       0.103367
     42 H20A         4.6140     3.0880     1.7880 h1         1 5MS       0.103367
     43 H20B         3.3680     1.7840     1.6980 h1         1 5MS       0.103367
@<TRIPOS>BOND
     1     1     2 ar  
     2     1     6 ar  
     3     1    20 1   
     4     2     3 ar  
     5     2    26 1   
     6     3     4 ar  
     7     3    27 1   
     8     4     5 ar  
     9     4     7 1   
    10     5     6 ar  
    11     5    28 1   
    12     6    21 1   
    13     7     8 1   
    14     7    29 1   
    15     8     9 ar  
    16     8    13 ar  
    17     9    10 ar  
    18     9    30 1   
    19    10    11 ar  
    20    10    14 1   
    21    11    12 ar  
    22    12    13 ar  
    23    12    31 1   
    24    14    15 ar  
    25    14    19 ar  
    26    15    16 ar  
    27    15    32 1   
    28    16    17 ar  
    29    16    33 1   
    30    17    18 ar  
    31    17    34 1   
    32    18    19 ar  
    33    18    35 1   
    34    19    36 1   
    35    20    37 1   
    36    20    38 1   
    37    20    39 1   
    38    21    22 1   
    39    21    40 1   
    40    22    23 1   
    41    22    24 2   
    42    22    25 2   
    43    23    41 1   
    44    23    42 1   
    45    23    43 1   
@<TRIPOS>SUBSTRUCTURE
     1 5MS         1 TEMP              0 ****  ****    0 ROOT
