@<TRIPOS>MOLECULE
5MT
   50    53     1     0     0
SMALL
bcc


@<TRIPOS>ATOM
      1 C20         -3.7170    -3.4520     2.0130 c3         1 5MT      -0.225300
      2 S1          -4.5460    -2.4310     0.8180 sy         1 5MT       1.088300
      3 O1          -5.4020    -3.2790    -0.0060 o          1 5MT      -0.586300
      4 O2          -5.1380    -1.2880     1.5080 o          1 5MT      -0.586300
      5 C18         -3.2190    -1.8320    -0.2040 ca         1 5MT      -0.260500
      6 C19         -2.5340    -0.6910     0.1860 ca         1 5MT      -0.031000
      7 C17         -2.8880    -2.5220    -1.3610 ca         1 5MT      -0.026000
      8 C16         -1.8470    -2.0520    -2.1480 ca         1 5MT      -0.135000
      9 C15         -1.1550    -0.9090    -1.7820 ca         1 5MT      -0.069000
     10 C14         -1.4930    -0.2420    -0.6110 ca         1 5MT      -0.023200
     11 N5          -0.7760     0.9150    -0.2260 na         1 5MT      -0.094400
     12 C9          -1.2610     2.2040    -0.2290 ca         1 5MT      -0.045200
     13 C10         -2.5020     2.7230    -0.5700 ca         1 5MT      -0.173000
     14 C11         -2.6090     4.0920    -0.4570 ca         1 5MT       0.156900
     15 F1          -3.7840     4.6660    -0.7670 f          1 5MT      -0.138900
     16 C12         -1.5680     4.9220    -0.0390 ca         1 5MT      -0.187000
     17 C13         -0.3400     4.3770     0.2880 ca         1 5MT      -0.038000
     18 C8          -0.1850     2.9970     0.1920 ca         1 5MT       0.058400
     19 N6           0.9090     2.2010     0.4430 nc         1 5MT      -0.574100
     20 C7           0.5280     0.9890     0.1870 cd         1 5MT       0.408800
     21 C6           1.3820    -0.2260     0.3970 c3         1 5MT       0.236200
     22 C21          0.9760    -0.9610     1.6770 c3         1 5MT      -0.109100
     23 N4           2.7550     0.2250     0.4390 nu         1 5MT      -0.857900
     24 C2           3.7990    -0.5640     0.1760 ca         1 5MT       0.784200
     25 N2           3.5620    -1.8290    -0.1840 nb         1 5MT      -0.845000
     26 C1           4.6190    -2.5760    -0.4460 ca         1 5MT       0.750900
     27 N1           5.8920    -2.2440    -0.3940 nb         1 5MT      -0.832000
     28 C4           6.1680    -0.9820    -0.0320 ca         1 5MT       0.784200
     29 N3           7.4500    -0.6310     0.0220 nv         1 5MT      -0.955500
     30 C3           5.1250    -0.0800     0.2690 ca         1 5MT      -0.436600
     31 C5           5.3930     1.2500     0.6460 cg         1 5MT       0.252800
     32 N7           5.6080     2.3430     0.9560 n1         1 5MT      -0.390800
     33 H1          -3.0440    -2.8380     2.6080 h1         1 5MT       0.104700
     34 H2          -4.4810    -3.8940     2.6510 h1         1 5MT       0.104700
     35 H3          -3.1630    -4.2330     1.4960 h1         1 5MT       0.104700
     36 H4          -2.7920    -0.1630     1.0950 ha         1 5MT       0.169000
     37 H5          -3.4300    -3.4110    -1.6540 ha         1 5MT       0.164000
     38 H6          -1.5820    -2.5720    -3.0580 ha         1 5MT       0.150000
     39 H7          -0.3560    -0.5300    -2.4050 ha         1 5MT       0.155000
     40 H8          -3.3320     2.1130    -0.9020 ha         1 5MT       0.164000
     41 H9          -1.7330     5.9890     0.0240 ha         1 5MT       0.155000
     42 H10          0.4780     5.0080     0.6080 ha         1 5MT       0.155000
     43 H11          1.2680    -0.9060    -0.4490 h1         1 5MT       0.088700
     44 H12         -0.0500    -1.3250     1.6130 hc         1 5MT       0.052367
     45 H13          1.6260    -1.8220     1.8230 hc         1 5MT       0.052367
     46 H14          1.0550    -0.3040     2.5420 hc         1 5MT       0.052367
     47 H15          2.9020     1.1830     0.7250 hn         1 5MT       0.480800
     48 H16          4.4090    -3.5990    -0.7410 h5         1 5MT       0.044100
     49 H17          8.1570    -1.3150    -0.1890 hn         1 5MT       0.451800
     50 H18          7.7540     0.2850     0.3020 hn         1 5MT       0.451800
@<TRIPOS>BOND
     1     1     2 1   
     2     1    33 1   
     3     1    34 1   
     4     1    35 1   
     5     2     3 2   
     6     2     4 2   
     7     2     5 1   
     8     5     6 ar  
     9     5     7 ar  
    10     6    10 ar  
    11     6    36 1   
    12     7     8 ar  
    13     7    37 1   
    14     8     9 ar  
    15     8    38 1   
    16     9    10 ar  
    17     9    39 1   
    18    10    11 1   
    19    11    12 1   
    20    11    20 1   
    21    12    13 ar  
    22    12    18 ar  
    23    13    14 ar  
    24    13    40 1   
    25    14    15 1   
    26    14    16 ar  
    27    16    17 ar  
    28    16    41 1   
    29    17    18 ar  
    30    17    42 1   
    31    18    19 1   
    32    19    20 2   
    33    20    21 1   
    34    21    22 1   
    35    21    23 1   
    36    21    43 1   
    37    22    44 1   
    38    22    45 1   
    39    22    46 1   
    40    23    24 1   
    41    23    47 1   
    42    24    25 ar  
    43    24    30 ar  
    44    25    26 ar  
    45    26    27 ar  
    46    26    48 1   
    47    27    28 ar  
    48    28    29 1   
    49    28    30 ar  
    50    29    49 1   
    51    29    50 1   
    52    30    31 1   
    53    31    32 3   
@<TRIPOS>SUBSTRUCTURE
     1 5MT         1 TEMP              0 ****  ****    0 ROOT
