@<TRIPOS>MOLECULE
5MT
   50    53     1     0     0
SMALL
No Charge or Current Charge


@<TRIPOS>ATOM
      1 C20         -3.3120    -3.0380     2.3420 c3         1 5MT      -0.336100
      2 S1          -4.3180    -2.1540     1.1520 sy         1 5MT       1.057500
      3 O1          -5.2630    -3.1290     0.5920 o          1 5MT      -0.515500
      4 O2          -4.7860    -0.9360     1.8240 o          1 5MT      -0.515500
      5 C18         -3.1260    -1.6950    -0.1220 ca         1 5MT      -0.260500
      6 C19         -2.3970    -0.4930    -0.0040 ca         1 5MT      -0.013000
      7 C17         -2.9070    -2.5420    -1.2280 ca         1 5MT      -0.008000
      8 C16         -1.9700    -2.1820    -2.2110 ca         1 5MT      -0.117000
      9 C15         -1.2430    -0.9850    -2.0930 ca         1 5MT      -0.051000
     10 C14         -1.4470    -0.1420    -0.9850 ca         1 5MT      -0.023200
     11 N5          -0.7110     1.0370    -0.8700 na         1 5MT      -0.094400
     12 C9          -1.2590     2.2560    -0.5830 ca         1 5MT      -0.045200
     13 C10         -2.4050     2.8540    -1.1260 ca         1 5MT      -0.155000
     14 C11         -2.7440     4.1430    -0.6750 ca         1 5MT       0.192000
     15 F1          -3.8400     4.7590    -1.1680 f          1 5MT      -0.174000
     16 C12         -1.9460     4.7990     0.2870 ca         1 5MT      -0.169000
     17 C13         -0.7970     4.1640     0.8100 ca         1 5MT      -0.020000
     18 C8          -0.4750     2.8760     0.3510 ca         1 5MT       0.058400
     19 N6           0.5870     2.0790     0.7450 nc         1 5MT      -0.574100
     20 C7           0.3820     0.9490     0.0240 cd         1 5MT       0.408800
     21 C6           1.2950    -0.2810     0.1670 c3         1 5MT       0.236200
     22 C21          0.9090    -1.1560     1.3800 c3         1 5MT      -0.109100
     23 N4           2.7210     0.1260     0.2940 nu         1 5MT      -0.913100
     24 C2           3.8590    -0.6350     0.0460 ca         1 5MT       0.455900
     25 N2           3.6620    -1.8380    -0.5170 nb         1 5MT      -0.319000
     26 C1           4.7590    -2.5770    -0.7620 ca         1 5MT       0.224900
     27 N1           6.0310    -2.2270    -0.5000 nb         1 5MT      -0.306000
     28 C4           6.2090    -1.0260     0.0570 ca         1 5MT       0.455900
     29 N3           7.5090    -0.7170     0.3020 nv         1 5MT      -1.065900
     30 C3           5.1440    -0.1690     0.3590 ca         1 5MT      -0.306000
     31 C5           5.3550     1.1150     0.9540 cg         1 5MT       0.342000
     32 N7           5.5130     2.1620     1.4430 n1         1 5MT      -0.480000
     33 H1          -2.5360    -2.3570     2.7060 h1         1 5MT       0.104700
     34 H2          -3.9600    -3.3610     3.1630 h1         1 5MT       0.104700
     35 H3          -2.8650    -3.9010     1.8380 h1         1 5MT       0.104700
     36 H4          -2.5570     0.1650     0.8490 ha         1 5MT       0.151000
     37 H5          -3.4580    -3.4760    -1.3320 ha         1 5MT       0.146000
     38 H6          -1.8050    -2.8340    -3.0660 ha         1 5MT       0.132000
     39 H7          -0.5210    -0.7150    -2.8600 ha         1 5MT       0.137000
     40 H8          -3.0110     2.3450    -1.8710 ha         1 5MT       0.146000
     41 H9          -2.2190     5.7950     0.6260 ha         1 5MT       0.137000
     42 H10         -0.1760     4.6570     1.5540 ha         1 5MT       0.137000
     43 H11          1.1710    -0.8800    -0.7450 h1         1 5MT       0.088700
     44 H12         -0.1250    -1.5090     1.2910 hc         1 5MT       0.052367
     45 H13          1.5570    -2.0370     1.4490 hc         1 5MT       0.052367
     46 H14          0.9980    -0.5880     2.3140 hc         1 5MT       0.052367
     47 H15          2.8840     1.0570     0.6830 hn         1 5MT       0.536000
     48 H16          4.6020    -3.5540    -1.2180 h5         1 5MT       0.044100
     49 H17          8.1930    -1.4680     0.2440 hn         1 5MT       0.507000
     50 H18          7.7260     0.0440     0.9410 hn         1 5MT       0.507000
@<TRIPOS>BOND
     1     1     2 1   
     2     1    33 1   
     3     1    34 1   
     4     1    35 1   
     5     2     3 2   
     6     2     4 2   
     7     2     5 1   
     8     5     6 ar  
     9     5     7 ar  
    10     6    10 ar  
    11     6    36 1   
    12     7     8 ar  
    13     7    37 1   
    14     8     9 ar  
    15     8    38 1   
    16     9    10 ar  
    17     9    39 1   
    18    10    11 1   
    19    11    12 1   
    20    11    20 1   
    21    12    13 ar  
    22    12    18 ar  
    23    13    14 ar  
    24    13    40 1   
    25    14    15 1   
    26    14    16 ar  
    27    16    17 ar  
    28    16    41 1   
    29    17    18 ar  
    30    17    42 1   
    31    18    19 1   
    32    19    20 2   
    33    20    21 1   
    34    21    22 1   
    35    21    23 1   
    36    21    43 1   
    37    22    44 1   
    38    22    45 1   
    39    22    46 1   
    40    23    24 1   
    41    23    47 1   
    42    24    25 ar  
    43    24    30 ar  
    44    25    26 ar  
    45    26    27 ar  
    46    26    48 1   
    47    27    28 ar  
    48    28    29 1   
    49    28    30 ar  
    50    29    49 1   
    51    29    50 1   
    52    30    31 1   
    53    31    32 3   
@<TRIPOS>SUBSTRUCTURE
     1 5MT         1 TEMP              0 ****  ****    0 ROOT
