@<TRIPOS>MOLECULE
5MU
   35    36     1     0     0
SMALL
No Charge or Current Charge


@<TRIPOS>ATOM
      1 N1          -0.0220    -0.2610     2.1830 n          1 5MU      -0.301000
      2 C2           0.6770     0.9580     2.3290 c          1 5MU       0.618000
      3 N3           1.2890     1.1490     3.5270 ns         1 5MU      -0.469500
      4 C4           1.3070     0.3310     4.6080 c          1 5MU       0.598200
      5 C5           0.5490    -0.9250     4.4290 cc         1 5MU      -0.313400
      6 C5M          0.5310    -1.8660     5.6110 c3         1 5MU      -0.004900
      7 C6          -0.0860    -1.1770     3.2320 cd         1 5MU       0.035600
      8 O2           0.7340     1.8290     1.4780 o          1 5MU      -0.529000
      9 O4           1.9070     0.6450     5.6230 o          1 5MU      -0.573000
     10 C1          -0.6730    -0.6190     0.8910 c5         1 5MU       0.328700
     11 C7          -2.0610     0.1280     0.8150 c5         1 5MU       0.091300
     12 O1          -3.1630    -0.7410     0.5250 oh         1 5MU      -0.738000
     13 C3          -1.8450     1.0570    -0.4220 c5         1 5MU       0.089300
     14 C8          -0.8560     0.1930    -1.2680 c5         1 5MU       0.154300
     15 O3          -3.1020     1.3290    -1.0790 oh         1 5MU      -0.703000
     16 O6           0.0930    -0.2370    -0.2680 os         1 5MU      -0.403000
     17 C9          -0.1460     0.9720    -2.4160 c3         1 5MU       0.257600
     18 O5           0.7900     0.1520    -3.1450 os         1 5MU      -0.567400
     19 P            0.3100    -1.0180    -4.1440 p5         1 5MU       1.270900
     20 OP1         -0.6680    -0.4670    -5.1200 o          1 5MU      -0.924167
     21 OP2          1.5010    -1.5180    -4.8830 o          1 5MU      -0.924167
     22 OP3         -0.2990    -2.1450    -3.3890 o          1 5MU      -0.924167
     23 HN3          1.7880     2.0170     3.6280 hn         1 5MU       0.334500
     24 H71          1.5460    -2.1850     5.8760 hc         1 5MU       0.033367
     25 H72          0.0850    -1.3860     6.4900 hc         1 5MU       0.033367
     26 H73         -0.0540    -2.7680     5.3930 hc         1 5MU       0.033367
     27 H6          -0.6620    -2.0750     3.0200 h4         1 5MU       0.203000
     28 H1          -0.8220    -1.7060     0.8900 h2         1 5MU       0.059700
     29 H2          -2.2670     0.7180     1.7200 h1         1 5MU       0.042700
     30 HO2         -3.6310    -0.2370    -0.1930 ho         1 5MU       0.525000
     31 H3          -1.3590     1.9930    -0.1100 h1         1 5MU       0.081700
     32 H4          -1.3760    -0.6820    -1.6750 h1         1 5MU       0.071700
     33 HO3         -3.0070     2.1770    -1.5760 ho         1 5MU       0.491000
     34 H5          -0.9110     1.3710    -3.0950 h1         1 5MU       0.012200
     35 H5'          0.3780     1.8330    -1.9810 h1         1 5MU       0.012200
@<TRIPOS>BOND
     1     1     2 1   
     2     1     7 1   
     3     1    10 1   
     4     2     3 1   
     5     2     8 2   
     6     3     4 1   
     7     3    23 1   
     8     4     5 1   
     9     4     9 2   
    10     5     6 1   
    11     5     7 2   
    12     6    24 1   
    13     6    25 1   
    14     6    26 1   
    15     7    27 1   
    16    10    11 1   
    17    10    16 1   
    18    10    28 1   
    19    11    12 1   
    20    11    13 1   
    21    11    29 1   
    22    12    30 1   
    23    13    14 1   
    24    13    15 1   
    25    13    31 1   
    26    14    16 1   
    27    14    17 1   
    28    14    32 1   
    29    15    33 1   
    30    17    18 1   
    31    17    34 1   
    32    17    35 1   
    33    18    19 1   
    34    19    20 1   
    35    19    21 1   
    36    19    22 1   
@<TRIPOS>SUBSTRUCTURE
     1 5MU         1 TEMP              0 ****  ****    0 ROOT
