@<TRIPOS>MOLECULE
5MU
   35    36     1     0     0
SMALL
bcc


@<TRIPOS>ATOM
      1 N1          -0.2930    -0.2130     2.2520 n          1 5MU      -0.368000
      2 C2           0.2420     1.0520     2.1890 c          1 5MU       0.827500
      3 N3           1.1090     1.3550     3.2050 ns         1 5MU      -0.603500
      4 C4           1.5000     0.5520     4.2610 c          1 5MU       0.740700
      5 C5           0.9070    -0.7700     4.2560 cc         1 5MU      -0.313400
      6 C5M          1.2670    -1.7260     5.3440 c3         1 5MU      -0.004900
      7 C6           0.0580    -1.0750     3.2600 cd         1 5MU       0.085600
      8 O2          -0.0280     1.8500     1.3160 o          1 5MU      -0.604500
      9 O4           2.2810     0.9660     5.0980 o          1 5MU      -0.648500
     10 C1          -1.1840    -0.6790     1.1940 c5         1 5MU       0.305500
     11 C7          -2.4370     0.1770     0.9320 c5         1 5MU       0.068100
     12 O1          -3.5480    -0.6820     0.9330 oh         1 5MU      -0.615800
     13 C3          -2.1930     0.7360    -0.4820 c5         1 5MU       0.066100
     14 C8          -1.2360    -0.2850    -1.0920 c5         1 5MU       0.131100
     15 O3          -3.3740     0.8040    -1.2440 oh         1 5MU      -0.580800
     16 O6          -0.4680    -0.7750    -0.0010 os         1 5MU      -0.356600
     17 C9          -0.3240     0.2990    -2.1450 c3         1 5MU       0.234400
     18 O5           0.4550    -0.7020    -2.7200 os         1 5MU      -0.544200
     19 P            1.0810    -0.3990    -4.2830 p5         1 5MU       1.270900
     20 OP1          1.8800     0.8920    -4.1370 o          1 5MU      -0.924167
     21 OP2          1.9100    -1.6560    -4.5010 o          1 5MU      -0.924167
     22 OP3         -0.1490    -0.2730    -5.1750 o          1 5MU      -0.924167
     23 HN3          1.5020     2.2880     3.1710 hn         1 5MU       0.334500
     24 H71          2.3430    -1.9010     5.3780 hc         1 5MU       0.033367
     25 H72          0.9700    -1.3470     6.3230 hc         1 5MU       0.033367
     26 H73          0.7770    -2.6870     5.1960 hc         1 5MU       0.033367
     27 H6          -0.4080    -2.0490     3.2100 h4         1 5MU       0.153000
     28 H1          -1.5190    -1.6660     1.5280 h2         1 5MU       0.059700
     29 H2          -2.5570     0.9670     1.6810 h1         1 5MU       0.042700
     30 HO2         -4.1240    -0.3860     0.2140 ho         1 5MU       0.426000
     31 H3          -1.7110     1.7120    -0.4150 h1         1 5MU       0.081700
     32 H4          -1.8230    -1.1040    -1.5320 h1         1 5MU       0.071700
     33 HO3         -3.7530     1.6830    -1.1480 ho         1 5MU       0.392000
     34 H5          -0.9670     0.7990    -2.8840 h1         1 5MU       0.012200
     35 H5'          0.2870     1.0840    -1.6770 h1         1 5MU       0.012200
@<TRIPOS>BOND
     1     1     2 1   
     2     1     7 1   
     3     1    10 1   
     4     2     3 1   
     5     2     8 2   
     6     3     4 1   
     7     3    23 1   
     8     4     5 1   
     9     4     9 2   
    10     5     6 1   
    11     5     7 2   
    12     6    24 1   
    13     6    25 1   
    14     6    26 1   
    15     7    27 1   
    16    10    11 1   
    17    10    16 1   
    18    10    28 1   
    19    11    12 1   
    20    11    13 1   
    21    11    29 1   
    22    12    30 1   
    23    13    14 1   
    24    13    15 1   
    25    13    31 1   
    26    14    16 1   
    27    14    17 1   
    28    14    32 1   
    29    15    33 1   
    30    17    18 1   
    31    17    34 1   
    32    17    35 1   
    33    18    19 1   
    34    19    20 1   
    35    19    21 1   
    36    19    22 1   
@<TRIPOS>SUBSTRUCTURE
     1 5MU         1 TEMP              0 ****  ****    0 ROOT
