@<TRIPOS>MOLECULE
5MV
   67    71     1     0     0
SMALL
No Charge or Current Charge


@<TRIPOS>ATOM
      1 N1           0.3050    -2.7100    -2.6440 nc         1 5MV      -0.513800
      2 N3          -2.5150     4.0910     0.8100 ns         1 5MV      -0.488900
      3 C4           0.2740    -7.6170    -1.1360 ca         1 5MV      -0.103000
      4 C5          -0.2430    -6.9620    -2.2620 ca         1 5MV       0.122500
      5 C6          -0.0470    -5.5820    -2.4320 ca         1 5MV      -0.089000
      6 C7           0.8760    -3.3730    -1.6480 cd         1 5MV       0.283500
      7 C8           1.6560    -2.5260    -0.8260 cd         1 5MV      -0.201000
      8 C10          3.5190     1.9550    -1.0750 ca         1 5MV      -0.113000
      9 C13          2.1940     0.1290     0.6000 ca         1 5MV      -0.042000
     10 C15          3.4650     2.1910     0.3100 ca         1 5MV       0.009000
     11 C17          4.0150     3.5740     2.2430 ca         1 5MV       0.152100
     12 C20          0.2610    -0.2980    -3.3490 c3         1 5MV       0.148600
     13 C21         -1.2210     3.1230    -1.0530 ca         1 5MV      -0.124600
     14 C22         -0.3500     3.3030    -2.1510 ca         1 5MV      -0.079000
     15 C24         -0.2840     0.8960    -2.5580 ca         1 5MV      -0.116300
     16 C26         -1.6250     1.8050    -0.7260 ca         1 5MV      -0.079000
     17 C1           0.6770    -4.8310    -1.4760 ca         1 5MV      -0.079500
     18 C2           1.1880    -5.5040    -0.3420 ca         1 5MV      -0.089000
     19 C3           0.9880    -6.8850    -0.1780 ca         1 5MV       0.122500
     20 Cl1          1.6350    -7.7000     1.2400 cl         1 5MV      -0.202500
     21 C9           1.5640    -1.2740    -1.3520 cc         1 5MV      -0.087000
     22 C11          2.9080     0.8130    -1.6210 ca         1 5MV      -0.090000
     23 C12          2.2340    -0.1030    -0.7890 ca         1 5MV      -0.048000
     24 C14          2.8020     1.2730     1.1510 ca         1 5MV      -0.074000
     25 C16          4.0690     3.3360     0.8600 ca         1 5MV      -0.161000
     26 C18          3.3500     2.6550     3.0840 ca         1 5MV      -0.177000
     27 C19          2.7470     1.5090     2.5380 ca         1 5MV      -0.050000
     28 C25         -1.1630     0.7080    -1.4730 ca         1 5MV      -0.103500
     29 N2           0.7270    -1.4000    -2.4590 na         1 5MV       0.152800
     30 C27          4.6260     5.0550     4.1220 c3         1 5MV       0.149900
     31 O2          -1.3590     5.4740    -0.5630 o          1 5MV      -0.617100
     32 C29         -3.0620     5.1310     1.6800 c3         1 5MV       0.112000
     33 C30         -3.9410     4.5230     2.7860 c3         1 5MV      -0.232400
     34 C31         -4.4870     5.6570     3.6590 c          1 5MV       0.723000
     35 O3          -3.8170     6.0220     4.6130 o          1 5MV      -0.731500
     36 O4          -5.5400     6.1800     3.3300 o          1 5MV      -0.731500
     37 C32         -0.7680    -0.7300    -4.4220 c3         1 5MV      -0.086100
     38 C23          0.1110     2.2040    -2.8950 ca         1 5MV      -0.103500
     39 H1          -2.7500     3.1290     1.0070 hn         1 5MV       0.302500
     40 H2           0.1210    -8.6850    -1.0060 ha         1 5MV       0.140000
     41 H3          -0.4610    -5.1010    -3.3150 ha         1 5MV       0.142500
     42 H4           2.2310    -2.8100     0.0470 ha         1 5MV       0.146000
     43 H5           4.0320     2.6550    -1.7300 ha         1 5MV       0.113000
     44 H6           1.6720    -0.5710     1.2470 ha         1 5MV       0.125000
     45 H7           1.1490     0.0400    -3.8960 h1         1 5MV       0.065700
     46 H8          -0.0200     4.3020    -2.4310 ha         1 5MV       0.131000
     47 H9          -2.2970     1.6100     0.1050 ha         1 5MV       0.131000
     48 H10          1.7400    -4.9670     0.4230 ha         1 5MV       0.142500
     49 H11          2.9670     0.6410    -2.6910 ha         1 5MV       0.112000
     50 H12          4.5810     4.0460     0.2170 ha         1 5MV       0.125000
     51 H13          3.2910     2.8120     4.1570 ha         1 5MV       0.123000
     52 H14          2.2360     0.8060     3.1930 ha         1 5MV       0.122000
     53 H15         -1.4840    -0.2940    -1.1980 ha         1 5MV       0.115500
     54 H16          3.6010     5.1790     4.4930 h1         1 5MV       0.042367
     55 H17          5.1230     4.2750     4.7120 h1         1 5MV       0.042367
     56 H18          5.1630     5.9980     4.2830 h1         1 5MV       0.042367
     57 H19         -2.2310     5.6910     2.1310 h1         1 5MV       0.059200
     58 H20         -3.6560     5.8270     1.0730 h1         1 5MV       0.059200
     59 H21         -4.7570     4.0000     2.2720 hc         1 5MV       0.020200
     60 H22         -3.2850     3.8640     3.3680 hc         1 5MV       0.020200
     61 H24         -1.0330     0.1210    -5.0600 hc         1 5MV       0.051367
     62 H25         -0.3560    -1.5160    -5.0650 hc         1 5MV       0.051367
     63 H26         -1.6860    -1.1050    -3.9540 hc         1 5MV       0.051367
     64 H27          0.7880     2.3720    -3.7300 ha         1 5MV       0.115500
     65 Cl2         -1.1430    -7.8740    -3.4680 cl         1 5MV      -0.202500
     66 O1           4.6250     4.7150     2.7230 os         1 5MV      -0.346100
     67 C28         -1.6890     4.3320    -0.2670 c          1 5MV       0.592700
@<TRIPOS>BOND
     1     1     6 2   
     2     1    29 1   
     3     2    32 1   
     4     2    39 1   
     5     2    67 1   
     6     3     4 ar  
     7     3    19 ar  
     8     3    40 1   
     9     4     5 ar  
    10     4    65 1   
    11     5    17 ar  
    12     5    41 1   
    13     6     7 1   
    14     6    17 1   
    15     7    21 2   
    16     7    42 1   
    17     8    10 ar  
    18     8    22 ar  
    19     8    43 1   
    20     9    23 ar  
    21     9    24 ar  
    22     9    44 1   
    23    10    24 ar  
    24    10    25 ar  
    25    11    25 ar  
    26    11    26 ar  
    27    11    66 1   
    28    12    15 1   
    29    12    29 1   
    30    12    37 1   
    31    12    45 1   
    32    13    14 ar  
    33    13    16 ar  
    34    13    67 1   
    35    14    38 ar  
    36    14    46 1   
    37    15    28 ar  
    38    15    38 ar  
    39    16    28 ar  
    40    16    47 1   
    41    17    18 ar  
    42    18    19 ar  
    43    18    48 1   
    44    19    20 1   
    45    21    23 1   
    46    21    29 1   
    47    22    23 ar  
    48    22    49 1   
    49    24    27 ar  
    50    25    50 1   
    51    26    27 ar  
    52    26    51 1   
    53    27    52 1   
    54    28    53 1   
    55    30    54 1   
    56    30    55 1   
    57    30    56 1   
    58    30    66 1   
    59    31    67 2   
    60    32    33 1   
    61    32    57 1   
    62    32    58 1   
    63    33    34 1   
    64    33    59 1   
    65    33    60 1   
    66    34    35 1   
    67    34    36 1   
    68    37    61 1   
    69    37    62 1   
    70    37    63 1   
    71    38    64 1   
@<TRIPOS>SUBSTRUCTURE
     1 5MV         1 TEMP              0 ****  ****    0 ROOT
