@<TRIPOS>MOLECULE
5MV
   67    71     1     0     0
SMALL
abcg2


@<TRIPOS>ATOM
      1 N1           0.3970    -2.3980    -2.4450 nc         1 5MV      -0.513800
      2 N3          -2.7540     3.4970     1.0530 ns         1 5MV      -0.488900
      3 C4          -0.8360    -7.1320    -1.1130 ca         1 5MV      -0.103000
      4 C5          -1.1460    -6.3160    -2.1910 ca         1 5MV       0.122500
      5 C6          -0.6440    -5.0340    -2.3110 ca         1 5MV      -0.089000
      6 C7           0.7430    -3.1780    -1.4330 cd         1 5MV       0.283500
      7 C8           1.6450    -2.5110    -0.5820 cd         1 5MV      -0.201000
      8 C10          4.3400     1.5170    -1.1760 ca         1 5MV      -0.113000
      9 C13          2.3690     0.4630     0.4930 ca         1 5MV      -0.042000
     10 C15          4.0920     2.1470     0.0690 ca         1 5MV       0.009000
     11 C17          4.5480     3.8750     1.7000 ca         1 5MV       0.152100
     12 C20          0.7830    -0.0940    -3.1070 c3         1 5MV       0.148600
     13 C21         -1.3490     2.8490    -0.7910 ca         1 5MV      -0.124600
     14 C22         -0.2030     3.1980    -1.4970 ca         1 5MV      -0.079000
     15 C24          0.0300     0.9350    -2.2950 ca         1 5MV      -0.116300
     16 C26         -1.8070     1.5340    -0.8560 ca         1 5MV      -0.079000
     17 C1           0.2040    -4.5330    -1.3220 ca         1 5MV      -0.079500
     18 C2           0.5260    -5.3340    -0.2290 ca         1 5MV      -0.089000
     19 C3           0.0040    -6.6140    -0.1420 ca         1 5MV       0.122500
     20 CL1          0.4120    -7.5990     1.2210 cl         1 5MV      -0.202500
     21 C9           1.8210    -1.2740    -1.1560 cc         1 5MV      -0.087000
     22 C11          3.6280     0.4170    -1.5580 ca         1 5MV      -0.090000
     23 C12          2.6150    -0.1200    -0.7230 ca         1 5MV      -0.048000
     24 C14          3.0960     1.5970     0.9160 ca         1 5MV      -0.074000
     25 C16          4.8060     3.2860     0.4820 ca         1 5MV      -0.161000
     26 C18          3.5570     3.3280     2.5500 ca         1 5MV      -0.177000
     27 C19          2.8550     2.2200     2.1590 ca         1 5MV      -0.050000
     28 C25         -1.1270     0.5880    -1.6040 ca         1 5MV      -0.103500
     29 N2           1.0580    -1.2650    -2.2770 na         1 5MV       0.152800
     30 C27          5.0320     5.6200     3.2450 c3         1 5MV       0.149900
     31 O2          -2.0030     5.0880    -0.3540 o          1 5MV      -0.617100
     32 C29         -3.5080     4.4020     1.9030 c3         1 5MV       0.112000
     33 C30         -4.3400     3.6130     2.8970 c3         1 5MV      -0.232400
     34 C31         -5.1960     4.4820     3.8370 c          1 5MV       0.723000
     35 O3          -5.8380     3.8660     4.7110 o          1 5MV      -0.731500
     36 O4          -5.1840     5.7140     3.6510 o          1 5MV      -0.731500
     37 C32          0.0500    -0.4690    -4.3860 c3         1 5MV      -0.086100
     38 C23          0.4860     2.2450    -2.2300 ca         1 5MV      -0.103500
     39 H1          -2.6420     2.5470     1.3690 hn         1 5MV       0.302500
     40 H2          -1.2320    -8.1330    -1.0370 ha         1 5MV       0.140000
     41 H3          -0.9050    -4.4220    -3.1630 ha         1 5MV       0.142500
     42 H4           2.1250    -2.8690     0.3140 ha         1 5MV       0.146000
     43 H5           5.1100     1.9160    -1.8250 ha         1 5MV       0.113000
     44 H6           1.5930     0.0670     1.1360 ha         1 5MV       0.125000
     45 H7           1.7460     0.3320    -3.3910 h1         1 5MV       0.065700
     46 H8           0.1650     4.2150    -1.4610 ha         1 5MV       0.131000
     47 H9          -2.7150     1.2380    -0.3450 ha         1 5MV       0.131000
     48 H10          1.1750    -4.9670     0.5540 ha         1 5MV       0.142500
     49 H11          3.8490    -0.0600    -2.5050 ha         1 5MV       0.112000
     50 H12          5.5650     3.7060    -0.1670 ha         1 5MV       0.125000
     51 H13          3.3410     3.7720     3.5130 ha         1 5MV       0.123000
     52 H14          2.0990     1.8090     2.8170 ha         1 5MV       0.122000
     53 H15         -1.5050    -0.4260    -1.6430 ha         1 5MV       0.115500
     54 H16          4.0110     6.0050     3.3090 h1         1 5MV       0.042367
     55 H17          5.2200     4.9710     4.1030 h1         1 5MV       0.042367
     56 H18          5.7220     6.4590     3.2850 h1         1 5MV       0.042367
     57 H19         -2.8290     5.0780     2.4290 h1         1 5MV       0.059200
     58 H20         -4.1520     5.0220     1.2790 h1         1 5MV       0.059200
     59 H21         -5.0040     2.9270     2.3600 hc         1 5MV       0.020200
     60 H22         -3.6890     2.9780     3.5080 hc         1 5MV       0.020200
     61 H24         -0.0560     0.4290    -4.9930 hc         1 5MV       0.051367
     62 H25          0.6140    -1.2020    -4.9620 hc         1 5MV       0.051367
     63 H26         -0.9430    -0.8680    -4.1910 hc         1 5MV       0.051367
     64 H27          1.3980     2.5230    -2.7440 ha         1 5MV       0.115500
     65 CL2         -2.1970    -6.9280    -3.4220 cl         1 5MV      -0.202500
     66 O1           5.2740     4.9620     2.0160 os         1 5MV      -0.346100
     67 C28         -2.0610     3.9110    -0.0160 c          1 5MV       0.592700
@<TRIPOS>BOND
     1     1     6 2   
     2     1    29 1   
     3     2    32 1   
     4     2    39 1   
     5     2    67 1   
     6     3     4 ar  
     7     3    19 ar  
     8     3    40 1   
     9     4     5 ar  
    10     4    65 1   
    11     5    17 ar  
    12     5    41 1   
    13     6     7 1   
    14     6    17 1   
    15     7    21 2   
    16     7    42 1   
    17     8    10 ar  
    18     8    22 ar  
    19     8    43 1   
    20     9    23 ar  
    21     9    24 ar  
    22     9    44 1   
    23    10    24 ar  
    24    10    25 ar  
    25    11    25 ar  
    26    11    26 ar  
    27    11    66 1   
    28    12    15 1   
    29    12    29 1   
    30    12    37 1   
    31    12    45 1   
    32    13    14 ar  
    33    13    16 ar  
    34    13    67 1   
    35    14    38 ar  
    36    14    46 1   
    37    15    28 ar  
    38    15    38 ar  
    39    16    28 ar  
    40    16    47 1   
    41    17    18 ar  
    42    18    19 ar  
    43    18    48 1   
    44    19    20 1   
    45    21    23 1   
    46    21    29 1   
    47    22    23 ar  
    48    22    49 1   
    49    24    27 ar  
    50    25    50 1   
    51    26    27 ar  
    52    26    51 1   
    53    27    52 1   
    54    28    53 1   
    55    30    54 1   
    56    30    55 1   
    57    30    56 1   
    58    30    66 1   
    59    31    67 2   
    60    32    33 1   
    61    32    57 1   
    62    32    58 1   
    63    33    34 1   
    64    33    59 1   
    65    33    60 1   
    66    34    35 1   
    67    34    36 1   
    68    37    61 1   
    69    37    62 1   
    70    37    63 1   
    71    38    64 1   
@<TRIPOS>SUBSTRUCTURE
     1 5MV         1 TEMP              0 ****  ****    0 ROOT
