@<TRIPOS>MOLECULE
5MW
   29    29     1     0     0
SMALL
bcc


@<TRIPOS>ATOM
      1 N           -2.9000     1.8650    -0.4850 n8         1 5MW      -0.891800
      2 CA          -3.1260     0.4280    -0.4920 c3         1 5MW       0.013500
      3 C           -4.5400    -0.0320    -0.0540 c          1 5MW       0.902600
      4 O           -5.3220     0.8330     0.3860 o          1 5MW      -0.837300
      5 CB          -2.0710    -0.2750     0.3630 c3         1 5MW      -0.050400
      6 CG          -0.6410    -0.0020    -0.0810 c3         1 5MW      -0.093400
      7 CD           0.3520    -0.7740     0.7750 c3         1 5MW       0.039300
      8 N1           3.4340    -1.0200    -0.8350 nc         1 5MW      -0.384000
      9 C1           3.6910     0.1100    -0.1400 cc         1 5MW       0.245600
     10 C2           2.5800     0.3890     0.6160 cd         1 5MW      -0.222600
     11 N2           1.7210    -0.6020     0.3260 na         1 5MW       0.120400
     12 N3           2.2470    -1.4370    -0.5510 nd         1 5MW      -0.204800
     13 N5           5.9280     0.2810     0.7870 n8         1 5MW      -0.883800
     14 H1          -3.5890     2.3010    -1.0860 hn         1 5MW       0.327300
     15 H2          -3.1200     2.2180     0.4400 hn         1 5MW       0.327300
     16 H4          -2.9860     0.0840    -1.5250 h1         1 5MW       0.041700
     17 H6          -2.1930     0.0300     1.4100 hc         1 5MW       0.041200
     18 H7          -2.2610    -1.3500     0.3340 hc         1 5MW       0.041200
     19 H8          -0.5170    -0.2980    -1.1270 hc         1 5MW       0.055200
     20 H9          -0.4270     1.0670    -0.0250 hc         1 5MW       0.055200
     21 H10          0.3010    -0.4560     1.8160 h1         1 5MW       0.065700
     22 H11          0.1420    -1.8430     0.7480 h1         1 5MW       0.065700
     23 H12          2.3520     1.1830     1.3080 h4         1 5MW       0.185000
     24 H13          5.3760     0.7500    -1.2380 h1         1 5MW       0.035700
     25 H14          4.8480     1.8730     0.0030 h1         1 5MW       0.035700
     26 H15          6.1590    -0.6750     0.5460 hn         1 5MW       0.335300
     27 H16          6.8000     0.7940     0.7320 hn         1 5MW       0.335300
     28 OXT         -4.7780    -1.2520    -0.1770 o          1 5MW      -0.837300
     29 C8           5.0030     0.8130    -0.2080 c3         1 5MW       0.138500
@<TRIPOS>BOND
     1     1     2 1   
     2     1    14 1   
     3     1    15 1   
     4     2     3 1   
     5     2     5 1   
     6     2    16 1   
     7     3     4 1   
     8     3    28 1   
     9     5     6 1   
    10     5    17 1   
    11     5    18 1   
    12     6     7 1   
    13     6    19 1   
    14     6    20 1   
    15     7    11 1   
    16     7    21 1   
    17     7    22 1   
    18     8     9 1   
    19     8    12 2   
    20     9    10 2   
    21     9    29 1   
    22    10    11 1   
    23    10    23 1   
    24    11    12 1   
    25    13    26 1   
    26    13    27 1   
    27    13    29 1   
    28    24    29 1   
    29    25    29 1   
@<TRIPOS>SUBSTRUCTURE
     1 5MW         1 TEMP              0 ****  ****    0 ROOT
