@<TRIPOS>MOLECULE
5MX
   45    47     1     0     0
SMALL
No Charge or Current Charge


@<TRIPOS>ATOM
      1 N1          -5.4620    -0.4270    -1.6530 nc         1 5MX      -0.784700
      2 C2          -6.7570    -0.5890    -1.6370 cd         1 5MX       0.758800
      3 N2          -7.2890    -0.6680    -2.8330 nv         1 5MX      -1.054200
      4 N3          -7.5900    -0.6760    -0.5940 ns         1 5MX      -0.460400
      5 C4          -7.1790    -0.6070     0.6940 c          1 5MX       0.490500
      6 O4          -7.9730    -0.6980     1.6220 o          1 5MX      -0.481000
      7 N5          -5.1520    -0.3260     2.0980 nb         1 5MX      -0.562000
      8 C6          -3.8120    -0.1570     2.1650 ca         1 5MX       0.294900
      9 C7          -3.0200    -0.0770     1.0050 ca         1 5MX       0.034500
     10 N8          -3.5740    -0.1670    -0.2300 nb         1 5MX      -0.137000
     11 C4A         -5.6940    -0.4150     0.8460 ca         1 5MX       0.160500
     12 C8A         -4.9120    -0.3370    -0.3510 ca         1 5MX       0.331000
     13 CAM         -1.5290     0.1130     1.1330 c          1 5MX       0.503600
     14 OAN         -0.9700     0.2010     2.2170 o          1 5MX      -0.581100
     15 NAO         -0.8170     0.1840    -0.0510 ns         1 5MX      -0.484900
     16 CAP          0.6400     0.3490    -0.1510 c3         1 5MX       0.074000
     17 CAQ          1.4170    -0.9180     0.2740 c3         1 5MX       0.093000
     18 NAR          2.8640    -0.7950     0.0630 ns         1 5MX      -0.502900
     19 CAS          3.6930     0.0190     0.7810 c          1 5MX       0.634100
     20 OAT          4.9580    -0.1110     0.2990 os         1 5MX      -0.463100
     21 OAU          3.3490     0.7390     1.7030 o          1 5MX      -0.531000
     22 HN2         -6.6270    -0.4180    -3.5570 hn         1 5MX       0.515000
     23 HN2A        -8.2110    -0.2680    -2.9490 hn         1 5MX       0.515000
     24 HN3         -8.5740    -0.8280    -0.7490 hn         1 5MX       0.327500
     25 H6          -3.3770    -0.0850     3.1610 h4         1 5MX       0.063100
     26 HNAO        -1.3550     0.1090    -0.9090 hn         1 5MX       0.344500
     27 HAP          0.8910     0.5920    -1.1910 h1         1 5MX       0.065200
     28 HAPA         0.9450     1.1970     0.4760 h1         1 5MX       0.065200
     29 HAQ          1.2310    -1.1270     1.3360 h1         1 5MX       0.065200
     30 HAQA         1.0530    -1.7760    -0.3070 h1         1 5MX       0.065200
     31 HNAR         3.3040    -1.3360    -0.6710 hn         1 5MX       0.326500
     32 C11          5.9890     0.6690     0.9260 c3         1 5MX       0.230900
     33 H11          5.7690     1.7430     0.8460 h1         1 5MX       0.057700
     34 H12          6.0720     0.4210     1.9930 h1         1 5MX       0.057700
     35 C12          7.3100     0.3680     0.2300 ca         1 5MX      -0.100300
     36 C13          7.7180     1.1320    -0.8830 ca         1 5MX      -0.085500
     37 C14          8.9380     0.8540    -1.5240 ca         1 5MX      -0.115500
     38 C15          9.7570    -0.1880    -1.0580 ca         1 5MX      -0.099000
     39 C16          9.3550    -0.9540     0.0490 ca         1 5MX      -0.115500
     40 C17          8.1350    -0.6780     0.6910 ca         1 5MX      -0.085500
     41 H13          7.0880     1.9390    -1.2510 ha         1 5MX       0.115000
     42 H14          9.2480     1.4470    -2.3820 ha         1 5MX       0.114000
     43 H15         10.7010    -0.4030    -1.5550 ha         1 5MX       0.113000
     44 H16          9.9870    -1.7630     0.4090 ha         1 5MX       0.114000
     45 H17          7.8300    -1.2770     1.5460 ha         1 5MX       0.115000
@<TRIPOS>BOND
     1     1     2 2   
     2     1    12 1   
     3     2     3 1   
     4     2     4 1   
     5     3    22 1   
     6     3    23 1   
     7     4     5 1   
     8     4    24 1   
     9     5     6 2   
    10     5    11 1   
    11     7     8 ar  
    12     7    11 ar  
    13     8     9 ar  
    14     8    25 1   
    15     9    10 ar  
    16     9    13 1   
    17    10    12 ar  
    18    11    12 ar  
    19    13    14 2   
    20    13    15 1   
    21    15    16 1   
    22    15    26 1   
    23    16    17 1   
    24    16    27 1   
    25    16    28 1   
    26    17    18 1   
    27    17    29 1   
    28    17    30 1   
    29    18    19 1   
    30    18    31 1   
    31    19    20 1   
    32    19    21 2   
    33    20    32 1   
    34    32    33 1   
    35    32    34 1   
    36    32    35 1   
    37    35    36 ar  
    38    35    40 ar  
    39    36    37 ar  
    40    36    41 1   
    41    37    38 ar  
    42    37    42 1   
    43    38    39 ar  
    44    38    43 1   
    45    39    40 ar  
    46    39    44 1   
    47    40    45 1   
@<TRIPOS>SUBSTRUCTURE
     1 5MX         1 TEMP              0 ****  ****    0 ROOT
