@<TRIPOS>MOLECULE
5MX
   45    47     1     0     0
SMALL
abcg2


@<TRIPOS>ATOM
      1 N1          -5.2760    -0.8150    -1.4260 nc         1 5MX      -0.784700
      2 C2          -6.5690    -1.0030    -1.4700 cd         1 5MX       0.758800
      3 N2          -7.1360    -1.4790    -2.5730 nv         1 5MX      -1.054200
      4 N3          -7.4020    -0.7370    -0.4170 ns         1 5MX      -0.460400
      5 C4          -6.9880    -0.2430     0.8000 c          1 5MX       0.490500
      6 O4          -7.7670    -0.0210     1.7010 o          1 5MX      -0.481000
      7 N5          -5.0140     0.4450     1.9780 nb         1 5MX      -0.562000
      8 C6          -3.7130     0.6370     2.0060 ca         1 5MX       0.294900
      9 C7          -2.9270     0.3480     0.8830 ca         1 5MX       0.034500
     10 N8          -3.4400    -0.1260    -0.2310 nb         1 5MX      -0.137000
     11 C4A         -5.5390    -0.0290     0.8580 ca         1 5MX       0.160500
     12 C8A         -4.7630    -0.3300    -0.2790 ca         1 5MX       0.331000
     13 CAM         -1.4420     0.5860     0.9400 c          1 5MX       0.503600
     14 OAN         -0.9210     1.0040     1.9640 o          1 5MX      -0.581100
     15 NAO         -0.7920     0.3220    -0.1960 ns         1 5MX      -0.484900
     16 CAP          0.6380     0.4360    -0.3390 c3         1 5MX       0.074000
     17 CAQ          1.3540    -0.8650     0.0300 c3         1 5MX       0.093000
     18 NAR          2.7750    -0.7900    -0.2040 ns         1 5MX      -0.502900
     19 CAS          3.6260    -0.2770     0.7030 c          1 5MX       0.634100
     20 OAT          4.8720    -0.2310     0.2180 os         1 5MX      -0.463100
     21 OAU          3.3190     0.0880     1.8200 o          1 5MX      -0.531000
     22 HN2         -6.5600    -1.6760    -3.3730 hn         1 5MX       0.515000
     23 HN2A        -8.1290    -1.6140    -2.6600 hn         1 5MX       0.515000
     24 HN3         -8.3960    -0.9020    -0.5230 hn         1 5MX       0.327500
     25 H6          -3.2760     1.0250     2.9160 h4         1 5MX       0.063100
     26 HNAO        -1.3270    -0.0600    -0.9620 hn         1 5MX       0.344500
     27 HAP          0.8560     0.6970    -1.3750 h1         1 5MX       0.065200
     28 HAPA         1.0000     1.2500     0.2900 h1         1 5MX       0.065200
     29 HAQ          1.1690    -1.1060     1.0770 h1         1 5MX       0.065200
     30 HAQA         0.9570    -1.6860    -0.5660 h1         1 5MX       0.065200
     31 HNAR         3.1200    -1.0140    -1.1230 hn         1 5MX       0.326500
     32 C11          5.8930     0.2330     1.1090 c3         1 5MX       0.230900
     33 H11          5.6810     1.2550     1.4310 h1         1 5MX       0.057700
     34 H12          5.9270    -0.4030     1.9970 h1         1 5MX       0.057700
     35 C12          7.1920     0.1720     0.3650 ca         1 5MX      -0.100300
     36 C13          7.8160     1.3360    -0.0700 ca         1 5MX      -0.085500
     37 C14          9.0190     1.2770    -0.7630 ca         1 5MX      -0.115500
     38 C15          9.6040     0.0480    -1.0350 ca         1 5MX      -0.099000
     39 C16          8.9850    -1.1210    -0.6060 ca         1 5MX      -0.115500
     40 C17          7.7870    -1.0580     0.0900 ca         1 5MX      -0.085500
     41 H13          7.3630     2.2970     0.1380 ha         1 5MX       0.115000
     42 H14          9.4980     2.1920    -1.0880 ha         1 5MX       0.114000
     43 H15         10.5400    -0.0010    -1.5750 ha         1 5MX       0.113000
     44 H16          9.4390    -2.0810    -0.8110 ha         1 5MX       0.114000
     45 H17          7.3150    -1.9730     0.4280 ha         1 5MX       0.115000
@<TRIPOS>BOND
     1     1     2 2   
     2     1    12 1   
     3     2     3 1   
     4     2     4 1   
     5     3    22 1   
     6     3    23 1   
     7     4     5 1   
     8     4    24 1   
     9     5     6 2   
    10     5    11 1   
    11     7     8 ar  
    12     7    11 ar  
    13     8     9 ar  
    14     8    25 1   
    15     9    10 ar  
    16     9    13 1   
    17    10    12 ar  
    18    11    12 ar  
    19    13    14 2   
    20    13    15 1   
    21    15    16 1   
    22    15    26 1   
    23    16    17 1   
    24    16    27 1   
    25    16    28 1   
    26    17    18 1   
    27    17    29 1   
    28    17    30 1   
    29    18    19 1   
    30    18    31 1   
    31    19    20 1   
    32    19    21 2   
    33    20    32 1   
    34    32    33 1   
    35    32    34 1   
    36    32    35 1   
    37    35    36 ar  
    38    35    40 ar  
    39    36    37 ar  
    40    36    41 1   
    41    37    38 ar  
    42    37    42 1   
    43    38    39 ar  
    44    38    43 1   
    45    39    40 ar  
    46    39    44 1   
    47    40    45 1   
@<TRIPOS>SUBSTRUCTURE
     1 5MX         1 TEMP              0 ****  ****    0 ROOT
