@<TRIPOS>MOLECULE
5MZ
   22    23     1     0     0
SMALL
abcg2


@<TRIPOS>ATOM
      1 NAA          4.6760    -1.3090    -0.4330 nv         1 5MZ      -1.073000
      2 CLAB        -4.4590    -0.1420    -0.7730 cl         1 5MZ      -0.229000
      3 CAC          2.9950     1.8900     0.2550 ca         1 5MZ      -0.083000
      4 CAD          3.9920     0.9720    -0.0210 ca         1 5MZ      -0.157000
      5 CAE          1.6670     1.4980     0.3530 ca         1 5MZ      -0.109000
      6 CAF          2.3460    -0.7760    -0.1100 ca         1 5MZ      -0.143000
      7 NAH         -0.4270    -1.5090     0.1100 nc         1 5MZ      -0.368300
      8 NAI         -1.0820     0.5820     0.5120 nd         1 5MZ      -0.700000
      9 OAJ         -1.7800    -1.4650     0.2740 os         1 5MZ      -0.073700
     10 CAK          3.6830    -0.3830    -0.2080 ca         1 5MZ       0.284000
     11 CAL          1.3490     0.1550     0.1670 ca         1 5MZ      -0.108500
     12 CAM         -2.1020    -0.2020     0.5070 cc         1 5MZ       0.463300
     13 CAN         -0.0450    -0.2750     0.2610 cd         1 5MZ       0.617500
     14 HNAA         5.5280    -0.9500    -0.8330 hn         1 5MZ       0.450500
     15 HNAB         4.3860    -2.1640    -0.8800 hn         1 5MZ       0.450500
     16 HAC          3.2560     2.9310     0.3930 ha         1 5MZ       0.115000
     17 HAD          5.0230     1.2990    -0.0940 ha         1 5MZ       0.114000
     18 HAE          0.8940     2.2240     0.5650 ha         1 5MZ       0.136000
     19 HAF          2.0910    -1.8190    -0.2550 ha         1 5MZ       0.129000
     20 HAG         -3.6020     1.2010     0.9840 h1         1 5MZ       0.099700
     21 HAGA        -3.9620    -0.4560     1.5160 h1         1 5MZ       0.099700
     22 CAG         -3.5230     0.1490     0.7260 c3         1 5MZ       0.084300
@<TRIPOS>BOND
     1     1    10 1   
     2     1    14 1   
     3     1    15 1   
     4     2    22 1   
     5     3     4 ar  
     6     3     5 ar  
     7     3    16 1   
     8     4    10 ar  
     9     4    17 1   
    10     5    11 ar  
    11     5    18 1   
    12     6    10 ar  
    13     6    11 ar  
    14     6    19 1   
    15     7     9 1   
    16     7    13 2   
    17     8    12 2   
    18     8    13 1   
    19     9    12 1   
    20    11    13 1   
    21    12    22 1   
    22    20    22 1   
    23    21    22 1   
@<TRIPOS>SUBSTRUCTURE
     1 5MZ         1 TEMP              0 ****  ****    0 ROOT
