@<TRIPOS>MOLECULE
5MZ
   22    23     1     0     0
SMALL
No Charge or Current Charge


@<TRIPOS>ATOM
      1 NAA          4.7060    -1.2710    -0.4840 nv         1 5MZ      -1.073000
      2 ClAB        -4.5410     0.2870    -0.7990 cl         1 5MZ      -0.229000
      3 CAC          3.0150     1.9270     0.1920 ca         1 5MZ      -0.083000
      4 CAD          4.0310     0.9930    -0.0700 ca         1 5MZ      -0.157000
      5 CAE          1.6800     1.5030     0.2970 ca         1 5MZ      -0.109000
      6 CAF          2.3800    -0.7870    -0.1220 ca         1 5MZ      -0.143000
      7 NAH         -0.4400    -1.5750     0.1150 nc         1 5MZ      -0.368300
      8 NAI         -1.1110     0.5610     0.5110 nd         1 5MZ      -0.700000
      9 OAJ         -1.8400    -1.5470     0.2940 os         1 5MZ      -0.073700
     10 CAK          3.7140    -0.3630    -0.2280 ca         1 5MZ       0.284000
     11 CAL          1.3390     0.1380     0.1420 ca         1 5MZ      -0.108500
     12 CAM         -2.1540    -0.2440     0.5230 cc         1 5MZ       0.463300
     13 CAN         -0.0720    -0.3080     0.2530 cd         1 5MZ       0.617500
     14 HNAA         5.6500    -0.9480    -0.6920 hn         1 5MZ       0.450500
     15 HNAB         4.4710    -2.2300    -0.7340 hn         1 5MZ       0.450500
     16 HAC          3.2630     2.9790     0.3140 ha         1 5MZ       0.115000
     17 HAD          5.0620     1.3270    -0.1490 ha         1 5MZ       0.114000
     18 HAE          0.9090     2.2440     0.5010 ha         1 5MZ       0.136000
     19 HAF          2.1540    -1.8430    -0.2460 ha         1 5MZ       0.129000
     20 HAG         -3.6400     1.0990     1.2720 h1         1 5MZ       0.099700
     21 HAGA        -4.0790    -0.6270     1.3720 h1         1 5MZ       0.099700
     22 CAG         -3.5920     0.1350     0.7530 c3         1 5MZ       0.084300
@<TRIPOS>BOND
     1     1    10 1   
     2     1    14 1   
     3     1    15 1   
     4     2    22 1   
     5     3     4 ar  
     6     3     5 ar  
     7     3    16 1   
     8     4    10 ar  
     9     4    17 1   
    10     5    11 ar  
    11     5    18 1   
    12     6    10 ar  
    13     6    11 ar  
    14     6    19 1   
    15     7     9 1   
    16     7    13 2   
    17     8    12 2   
    18     8    13 1   
    19     9    12 1   
    20    11    13 1   
    21    12    22 1   
    22    20    22 1   
    23    21    22 1   
@<TRIPOS>SUBSTRUCTURE
     1 5MZ         1 TEMP              0 ****  ****    0 ROOT
