@<TRIPOS>MOLECULE
5N0
  173   181     1     0     0
SMALL
abcg2


@<TRIPOS>ATOM
      1 C1          11.7210     5.9450    -6.8510 c3         1 5N0       0.045900
      2 N1          11.0870     5.2160    -5.7650 na         1 5N0      -0.109500
      3 O1          13.9520     5.1120    -4.9650 o          1 5N0      -0.625100
      4 C2           9.7490     4.9950    -5.7040 cc         1 5N0      -0.186000
      5 N2          10.7100     3.9920    -3.9690 nd         1 5N0      -0.678000
      6 O2          17.4090     2.2140     0.5510 o          1 5N0      -0.629100
      7 C3           9.5330     4.2370    -4.5840 cd         1 5N0       0.233900
      8 N3          13.2940     3.7930    -3.2410 ns         1 5N0      -0.438400
      9 O3          14.4500    -2.7080     4.8530 o          1 5N0      -0.610100
     10 C4          11.6340     4.5890    -4.6940 cc         1 5N0       0.321000
     11 N4          14.5790     2.8240    -1.5370 nc         1 5N0      -0.715000
     12 O4           9.9160    -7.8470     2.8470 o          1 5N0      -0.607100
     13 C5          13.0680     4.5470    -4.3380 c          1 5N0       0.560600
     14 N5          16.5720     3.6830    -1.8980 na         1 5N0      -0.106500
     15 O5           6.3220    -7.2920     2.8770 o          1 5N0      -0.569100
     16 C6          15.8270     2.8760    -1.1140 cd         1 5N0       0.344000
     17 N6          15.3320     1.2960     0.5440 ns         1 5N0      -0.346100
     18 O6          10.0060    -3.2030     7.0500 o          1 5N0      -0.623100
     19 C7          17.9770     4.0350    -1.8040 c3         1 5N0       0.053900
     20 N7          16.1340    -0.7240     3.3900 na         1 5N0       0.079000
     21 O7          14.6300     1.8070     5.1250 o          1 5N0      -0.619100
     22 C8          15.7490     4.1800    -2.8660 cd         1 5N0      -0.219000
     23 N8          13.4290    -3.0650     2.8640 ns         1 5N0      -0.369100
     24 O8          14.7700     6.2790    -0.3680 o          1 5N0      -0.623100
     25 C9          14.5140     3.6310    -2.6110 cc         1 5N0       0.380900
     26 N9          11.4910    -5.7730     4.1890 na         1 5N0       0.073000
     27 O9           9.7660     8.6200    -4.7540 o          1 5N0      -0.629100
     28 N10          9.7480    -6.4440     1.0770 ns         1 5N0      -0.507900
     29 C11         14.9400    -1.2670     3.0110 cc         1 5N0      -0.229600
     30 N11          5.8900    -7.9590     0.3270 n8         1 5N0      -0.987200
     31 C12         17.0080    -1.1150     4.4780 c3         1 5N0       0.049900
     32 C13         16.4610     0.2880     2.5450 cc         1 5N0      -0.180000
     33 C14         15.4550     0.4120     1.6080 cd         1 5N0      -0.014400
     34 N14          7.1440    -5.2430     2.4320 ns         1 5N0      -0.463400
     35 C15         14.4960    -0.5720     1.9020 cd         1 5N0      -0.187000
     36 N15          8.4490    -3.9520     3.9290 nc         1 5N0      -0.705000
     37 N16          7.9780    -4.8990     5.8620 na         1 5N0      -0.116500
     38 C17         11.1570    -5.8230     2.8670 cc         1 5N0      -0.219600
     39 N17         10.1810    -2.1270     5.0560 ns         1 5N0      -0.345100
     40 C18         11.0320    -6.6380     5.2570 c3         1 5N0       0.058900
     41 N18         12.8400    -0.1160     6.3730 na         1 5N0       0.080000
     42 C19         12.3680    -4.7530     4.3990 cc         1 5N0      -0.187000
     43 N19         13.0270     2.1920     3.5790 ns         1 5N0      -0.366100
     44 C20         11.8490    -4.8160     2.2220 cd         1 5N0      -0.195000
     45 N20         15.1230     4.6030     1.9540 na         1 5N0       0.073000
     46 C21         12.6130    -4.1390     3.1880 cd         1 5N0      -0.018400
     47 N21         12.5780     5.7370    -0.4100 ns         1 5N0      -0.363100
     48 N22         12.1280     7.9020    -3.2310 na         1 5N0       0.072000
     49 C23          8.8880    -7.2350     0.2270 c3         1 5N0       0.100000
     50 N23          8.5590     8.3550    -2.8550 ns         1 5N0      -0.500900
     51 C24          7.6820    -6.4360    -0.2610 c3         1 5N0      -0.089400
     52 C25          6.4010    -6.6240     0.5630 c3         1 5N0       0.096500
     53 C26          6.6240    -6.4410     2.0620 c          1 5N0       0.606100
     54 C27          7.9430    -5.2330     7.2740 c3         1 5N0       0.063900
     55 C28          7.2500    -5.5560     4.9160 cd         1 5N0      -0.216000
     56 C29          7.5690    -4.9500     3.7220 cc         1 5N0       0.366900
     57 C30          8.6910    -3.9470     5.2260 cd         1 5N0       0.343000
     58 C31          9.6840    -3.0730     5.8770 c          1 5N0       0.542600
     59 C32         12.6990     0.4290     5.1300 cc         1 5N0      -0.231600
     60 C33         13.7830     0.2560     7.4090 c3         1 5N0       0.063900
     61 C34         11.9370    -1.1150     6.5360 cc         1 5N0      -0.171000
     62 C35         11.6780    -0.2470     4.4860 cd         1 5N0      -0.177000
     63 C36         11.1990    -1.2270     5.3730 cd         1 5N0      -0.023400
     64 C38         13.0480     3.8410     1.7600 cc         1 5N0      -0.183000
     65 C39         13.9710     4.7240     1.2290 cd         1 5N0      -0.224600
     66 C40         16.3630     5.3400     1.8000 c3         1 5N0       0.062900
     67 C41         14.9490     3.6760     2.9320 cd         1 5N0      -0.176000
     68 C42         13.6640     3.1790     2.8340 cc         1 5N0      -0.020400
     69 C44         10.8330     7.6790    -2.8650 cc         1 5N0      -0.237600
     70 C45         12.6100     8.7480    -4.3030 c3         1 5N0       0.061900
     71 C46         12.9590     7.2390    -2.3840 cc         1 5N0      -0.175000
     72 C47         10.8420     6.8430    -1.7660 cd         1 5N0      -0.174000
     73 C48         12.1870     6.5640    -1.4600 cd         1 5N0      -0.022400
     74 C50          7.2810     8.7880    -3.3720 c3         1 5N0       0.100000
     75 C51          6.2330     7.6730    -3.3460 c3         1 5N0      -0.130400
     76 C52          6.5430     6.4580    -4.2340 c3         1 5N0       0.170800
     77 C53          4.5770     6.4770    -5.6710 c3         1 5N0       0.168800
     78 C54          4.0390     5.8090    -6.9310 c3         1 5N0      -0.096400
     79 C55          4.2350     4.3010    -6.9650 c3         1 5N0       0.123000
     80 C56          6.2350     2.8360    -7.3320 c          1 5N0       0.621700
     81 C57          5.3510     1.7130    -7.7810 ca         1 5N0      -0.182600
     82 C58          5.5970     1.1030    -9.0070 ca         1 5N0      -0.040000
     83 C59          4.8440     0.0140    -9.4330 ca         1 5N0      -0.144600
     84 C60          3.8510    -0.4780    -8.5890 ca         1 5N0      -0.073000
     85 C61          3.6070     0.1140    -7.3580 ca         1 5N0      -0.157000
     86 C62          4.3510     1.2130    -6.9530 ca         1 5N0      -0.120000
     87 C63          5.1180    -0.6360   -10.7890 c          1 5N0       0.715600
     88 C64          6.6230     7.5020    -6.4380 c3         1 5N0       0.151100
     89 N24          6.0340     6.4770    -5.5980 n3         1 5N0      -0.736600
     90 N25          5.6470     3.9660    -6.9210 ns         1 5N0      -0.523900
     91 O10          7.4540     2.7000    -7.3630 o          1 5N0      -0.625100
     92 O11          4.4200    -1.6250   -11.0800 o          1 5N0      -0.717000
     93 O12          6.0120    -0.1150   -11.4810 o          1 5N0      -0.717000
     94 H1          12.7740     6.0790    -6.6460 h1         1 5N0       0.066033
     95 H2          11.6050     5.3930    -7.7810 h1         1 5N0       0.066033
     96 H3          11.2460     6.9180    -6.9580 h1         1 5N0       0.066033
     97 H4           9.0730     5.3820    -6.4490 h4         1 5N0       0.174000
     98 H5           8.5910     3.8730    -4.2030 h4         1 5N0       0.044100
     99 H6          12.4920     3.3740    -2.7900 hn         1 5N0       0.366500
    100 H7          14.4450     1.3090     0.0600 hn         1 5N0       0.356500
    101 H8          18.5070     3.3060    -1.2060 h1         1 5N0       0.063367
    102 H9          18.4030     4.0600    -2.8040 h1         1 5N0       0.063367
    103 H10         18.0870     5.0160    -1.3440 h1         1 5N0       0.063367
    104 H11         16.1060     4.8610    -3.6160 h4         1 5N0       0.182000
    105 H12         13.4240    -2.8100     1.8900 hn         1 5N0       0.326500
    106 H13         10.0030    -5.5400     0.7150 hn         1 5N0       0.310500
    107 H14          5.0590    -8.1250     0.8800 hn         1 5N0       0.408500
    108 H15          5.6040    -8.0290    -0.6420 hn         1 5N0       0.408500
    109 H17         16.6850    -2.0540     4.9080 h1         1 5N0       0.061367
    110 H18         18.0260    -1.2250     4.1110 h1         1 5N0       0.061367
    111 H19         16.9950    -0.3580     5.2620 h1         1 5N0       0.061367
    112 H20         17.3760     0.8380     2.6740 h4         1 5N0       0.170000
    113 H21          7.4260    -4.5820     1.7240 hn         1 5N0       0.331500
    114 H22         13.5610    -0.7150     1.3810 ha         1 5N0       0.132000
    115 H23          9.8540    -2.1320     4.1000 hn         1 5N0       0.351500
    116 H24         11.3840    -6.2250     6.1980 h1         1 5N0       0.059033
    117 H25          9.9480    -6.6910     5.2860 h1         1 5N0       0.059033
    118 H26         11.4290    -7.6440     5.1470 h1         1 5N0       0.059033
    119 H27         12.7410    -4.5400     5.3850 h4         1 5N0       0.174000
    120 H28         12.0930     1.9620     3.2790 hn         1 5N0       0.325500
    121 H29         11.8400    -4.5910     1.1650 ha         1 5N0       0.128000
    122 H30         11.8300     5.2490     0.0530 hn         1 5N0       0.326500
    123 H31          8.5720    -8.1260     0.7690 h1         1 5N0       0.071700
    124 H32          9.4650    -7.5800    -0.6340 h1         1 5N0       0.071700
    125 H33          8.6000     8.1410    -1.8720 hn         1 5N0       0.316500
    126 H34          7.4450    -6.7340    -1.2840 hc         1 5N0       0.050200
    127 H35          7.9400    -5.3760    -0.3310 hc         1 5N0       0.050200
    128 H36          5.7010    -5.8300     0.2560 h1         1 5N0       0.033700
    129 H37          7.1500    -5.9600     7.4270 h1         1 5N0       0.061700
    130 H38          8.8870    -5.6690     7.5910 h1         1 5N0       0.061700
    131 H39          7.7330    -4.3540     7.8740 h1         1 5N0       0.061700
    132 H40          6.5930    -6.3670     5.1710 h4         1 5N0       0.186000
    133 H41         13.5160    -0.2820     8.3140 h1         1 5N0       0.057700
    134 H42         14.8000    -0.0110     7.1320 h1         1 5N0       0.057700
    135 H43         13.7410     1.3220     7.6150 h1         1 5N0       0.057700
    136 H44         11.8990    -1.6750     7.4520 h4         1 5N0       0.172000
    137 H45         11.3300    -0.0890     3.4750 ha         1 5N0       0.131000
    138 H46         12.0430     3.6550     1.4110 ha         1 5N0       0.129000
    139 H47         17.0590     4.9810     2.5520 h1         1 5N0       0.058700
    140 H48         16.8020     5.1810     0.8160 h1         1 5N0       0.058700
    141 H49         16.2100     6.4060     1.9470 h1         1 5N0       0.058700
    142 H50         15.7500     3.4300     3.6050 h4         1 5N0       0.174000
    143 H51         13.6950     8.7750    -4.2500 h1         1 5N0       0.058033
    144 H52         12.3130     8.3610    -5.2740 h1         1 5N0       0.058033
    145 H53         12.2350     9.7640    -4.2010 h1         1 5N0       0.058033
    146 H54         14.0250     7.3000    -2.5030 h4         1 5N0       0.175000
    147 H55          9.9780     6.4460    -1.2530 ha         1 5N0       0.130000
    148 H56          7.4330     9.1680    -4.3790 h1         1 5N0       0.054700
    149 H57          6.9270     9.6270    -2.7680 h1         1 5N0       0.054700
    150 H58          5.2660     8.1070    -3.6120 hc         1 5N0       0.043700
    151 H59          6.1270     7.3330    -2.3120 hc         1 5N0       0.043700
    152 H60          6.1450     5.5580    -3.7590 h1         1 5N0       0.060700
    153 H61          7.6230     6.3040    -4.2830 h1         1 5N0       0.060700
    154 H62          4.1730     7.4980    -5.6070 h1         1 5N0       0.027200
    155 H63          4.1880     5.9390    -4.8010 h1         1 5N0       0.027200
    156 H64          4.4710     6.2620    -7.8270 hc         1 5N0       0.047700
    157 H65          2.9650     5.9970    -6.9840 hc         1 5N0       0.047700
    158 H66          3.7840     3.9000    -7.8740 h1         1 5N0       0.043200
    159 H67          3.6960     3.8650    -6.1170 h1         1 5N0       0.043200
    160 H68          6.3790     1.4870    -9.6490 ha         1 5N0       0.141000
    161 H69          3.2630    -1.3300    -8.9040 ha         1 5N0       0.127000
    162 H70          2.8400    -0.2860    -6.7070 ha         1 5N0       0.085000
    163 H71          4.1530     1.6690    -5.9900 ha         1 5N0       0.083000
    164 H72          7.7090     7.4920    -6.3370 h1         1 5N0       0.035367
    165 H73          6.3890     7.3130    -7.4860 h1         1 5N0       0.035367
    166 H74          6.2690     8.5160    -6.2040 h1         1 5N0       0.035367
    167 H76          6.2370     4.6950    -6.5200 hn         1 5N0       0.330500
    168 C10         16.2880     2.1120     0.0690 c          1 5N0       0.547600
    169 C16         14.2710    -2.3940     3.6840 c          1 5N0       0.650700
    170 C22         10.2250    -6.8040     2.2820 c          1 5N0       0.647700
    171 C37         13.5490     1.5180     4.6290 c          1 5N0       0.651700
    172 C43         13.8320     5.6380     0.0900 c          1 5N0       0.649700
    173 C49          9.6860     8.2570    -3.5840 c          1 5N0       0.649700
@<TRIPOS>BOND
     1     1     2 1   
     2     1    94 1   
     3     1    95 1   
     4     1    96 1   
     5     2     4 1   
     6     2    10 1   
     7     3    13 2   
     8     4     7 2   
     9     4    97 1   
    10     5     7 1   
    11     5    10 2   
    12     6   168 2   
    13     7    98 1   
    14     8    13 1   
    15     8    25 1   
    16     8    99 1   
    17     9   169 2   
    18    10    13 1   
    19    11    16 2   
    20    11    25 1   
    21    12   170 2   
    22    14    16 1   
    23    14    19 1   
    24    14    22 1   
    25    15    53 2   
    26    16   168 1   
    27    17    33 1   
    28    17   100 1   
    29    17   168 1   
    30    18    58 2   
    31    19   101 1   
    32    19   102 1   
    33    19   103 1   
    34    20    29 1   
    35    20    31 1   
    36    20    32 1   
    37    21   171 2   
    38    22    25 2   
    39    22   104 1   
    40    23    46 1   
    41    23   105 1   
    42    23   169 1   
    43    24   172 2   
    44    26    38 1   
    45    26    40 1   
    46    26    42 1   
    47    27   173 2   
    48    28    49 1   
    49    28   106 1   
    50    28   170 1   
    51    29    35 2   
    52    29   169 1   
    53    30    52 1   
    54    30   107 1   
    55    30   108 1   
    56    31   109 1   
    57    31   110 1   
    58    31   111 1   
    59    32    33 2   
    60    32   112 1   
    61    33    35 1   
    62    34    53 1   
    63    34    56 1   
    64    34   113 1   
    65    35   114 1   
    66    36    56 1   
    67    36    57 2   
    68    37    54 1   
    69    37    55 1   
    70    37    57 1   
    71    38    44 2   
    72    38   170 1   
    73    39    58 1   
    74    39    63 1   
    75    39   115 1   
    76    40   116 1   
    77    40   117 1   
    78    40   118 1   
    79    41    59 1   
    80    41    60 1   
    81    41    61 1   
    82    42    46 2   
    83    42   119 1   
    84    43    68 1   
    85    43   120 1   
    86    43   171 1   
    87    44    46 1   
    88    44   121 1   
    89    45    65 1   
    90    45    66 1   
    91    45    67 1   
    92    47    73 1   
    93    47   122 1   
    94    47   172 1   
    95    48    69 1   
    96    48    70 1   
    97    48    71 1   
    98    49    51 1   
    99    49   123 1   
   100    49   124 1   
   101    50    74 1   
   102    50   125 1   
   103    50   173 1   
   104    51    52 1   
   105    51   126 1   
   106    51   127 1   
   107    52    53 1   
   108    52   128 1   
   109    54   129 1   
   110    54   130 1   
   111    54   131 1   
   112    55    56 2   
   113    55   132 1   
   114    57    58 1   
   115    59    62 2   
   116    59   171 1   
   117    60   133 1   
   118    60   134 1   
   119    60   135 1   
   120    61    63 2   
   121    61   136 1   
   122    62    63 1   
   123    62   137 1   
   124    64    65 2   
   125    64    68 1   
   126    64   138 1   
   127    65   172 1   
   128    66   139 1   
   129    66   140 1   
   130    66   141 1   
   131    67    68 2   
   132    67   142 1   
   133    69    72 2   
   134    69   173 1   
   135    70   143 1   
   136    70   144 1   
   137    70   145 1   
   138    71    73 2   
   139    71   146 1   
   140    72    73 1   
   141    72   147 1   
   142    74    75 1   
   143    74   148 1   
   144    74   149 1   
   145    75    76 1   
   146    75   150 1   
   147    75   151 1   
   148    76    89 1   
   149    76   152 1   
   150    76   153 1   
   151    77    78 1   
   152    77    89 1   
   153    77   154 1   
   154    77   155 1   
   155    78    79 1   
   156    78   156 1   
   157    78   157 1   
   158    79    90 1   
   159    79   158 1   
   160    79   159 1   
   161    80    81 1   
   162    80    90 1   
   163    80    91 2   
   164    81    82 ar  
   165    81    86 ar  
   166    82    83 ar  
   167    82   160 1   
   168    83    84 ar  
   169    83    87 1   
   170    84    85 ar  
   171    84   161 1   
   172    85    86 ar  
   173    85   162 1   
   174    86   163 1   
   175    87    92 1   
   176    87    93 1   
   177    88    89 1   
   178    88   164 1   
   179    88   165 1   
   180    88   166 1   
   181    90   167 1   
@<TRIPOS>SUBSTRUCTURE
     1 5N0         1 TEMP              0 ****  ****    0 ROOT
