@<TRIPOS>MOLECULE
5N0
  173   181     1     0     0
SMALL
No Charge or Current Charge


@<TRIPOS>ATOM
      1 C1          12.0440     6.7350    -5.9170 c3         1 5N0       0.045900
      2 N1          11.3810     5.5710    -5.3070 na         1 5N0      -0.109500
      3 O1          14.1580     5.6120    -4.0380 o          1 5N0      -0.625100
      4 C2          10.1110     5.1300    -5.6070 cc         1 5N0      -0.186000
      5 N2          11.0360     3.7410    -4.0880 nd         1 5N0      -0.678000
      6 O2          17.4390     1.1760     0.6790 o          1 5N0      -0.629100
      7 C3           9.9220     4.0040    -4.8550 cd         1 5N0       0.233900
      8 N3          13.5410     3.7480    -2.8670 ns         1 5N0      -0.438400
      9 O3          13.8120    -4.4450     3.6620 o          1 5N0      -0.610100
     10 C4          11.9260     4.7020    -4.3680 cc         1 5N0       0.321000
     11 N4          14.6570     2.3810    -1.3450 nc         1 5N0      -0.715000
     12 O4           6.6370    -5.5330     2.5900 o          1 5N0      -0.607100
     13 C5          13.3090     4.7690    -3.7640 c          1 5N0       0.560600
     14 N5          16.6560     3.3890    -1.2880 na         1 5N0      -0.106500
     15 O5           4.9960    -3.5460     4.9300 o          1 5N0      -0.569100
     16 C6          15.8780     2.3360    -0.7920 cd         1 5N0       0.344000
     17 N6          15.2750     0.4040     0.4970 ns         1 5N0      -0.346100
     18 O6          12.0150    -3.1330     6.6220 o          1 5N0      -0.623100
     19 C7          18.0580     3.6830    -0.9540 c3         1 5N0       0.053900
     20 N7          15.7860    -2.3110     2.7400 na         1 5N0       0.079000
     21 O7          16.3250     2.1570     4.0320 o          1 5N0      -0.619100
     22 C8          15.8650     4.1140    -2.1620 cd         1 5N0      -0.219000
     23 N8          12.1950    -3.3570     2.4500 ns         1 5N0      -0.369100
     24 O8          14.2410     7.2550    -0.7710 o          1 5N0      -0.623100
     25 C9          14.6710     3.4590    -2.1570 cc         1 5N0       0.380900
     26 N9           9.6090    -5.6370     3.3310 na         1 5N0       0.073000
     27 O9           7.4850     7.7180    -3.5350 o          1 5N0      -0.629100
     28 N10          7.0640    -3.5890     1.4840 ns         1 5N0      -0.507900
     29 C11         14.4260    -2.4840     2.4350 cc         1 5N0      -0.229600
     30 N11          3.1580    -2.5480     2.9040 n8         1 5N0      -0.987200
     31 C12         16.5720    -3.1630     3.6420 c3         1 5N0       0.049900
     32 C13         16.3000    -1.2000     2.0650 cc         1 5N0      -0.180000
     33 C14         15.2620    -0.6930     1.3400 cd         1 5N0      -0.014400
     34 N14          6.7110    -2.1670     4.3170 ns         1 5N0      -0.463400
     35 C15         14.1130    -1.4650     1.5590 cd         1 5N0      -0.187000
     36 N15          8.9500    -2.0560     4.9680 nc         1 5N0      -0.705000
     37 N16          9.0780    -3.8770     6.2660 na         1 5N0      -0.116500
     38 C17          8.8890    -4.7140     2.5550 cc         1 5N0      -0.219600
     39 N17         11.6440    -1.3680     5.1880 ns         1 5N0      -0.345100
     40 C18          9.0410    -6.8250     3.9850 c3         1 5N0       0.058900
     41 N18         15.0120    -0.2330     5.3720 na         1 5N0       0.080000
     42 C19         10.9550    -5.2640     3.4120 cc         1 5N0      -0.187000
     43 N19         14.3360     2.5670     2.9630 ns         1 5N0      -0.366100
     44 C20          9.8140    -3.7770     2.1490 cd         1 5N0      -0.195000
     45 N20         15.6060     5.4240     1.2280 na         1 5N0       0.073000
     46 C21         11.0640    -4.1190     2.6780 cd         1 5N0      -0.018400
     47 N21         12.3400     5.9870    -0.5220 ns         1 5N0      -0.363100
     48 N22         10.4490     7.9140    -2.8390 na         1 5N0       0.072000
     49 C23          5.6930    -3.2410     1.0930 c3         1 5N0       0.100000
     50 N23          7.3040     6.0410    -2.0070 ns         1 5N0      -0.500900
     51 C24          5.2390    -1.8890     1.7000 c3         1 5N0      -0.089400
     52 C25          4.5370    -1.9770     3.0860 c3         1 5N0       0.096500
     53 C26          5.4250    -2.6530     4.2070 c          1 5N0       0.606100
     54 C27          9.6210    -4.9350     7.1320 c3         1 5N0       0.063900
     55 C28          7.7700    -3.7910     5.8250 cd         1 5N0      -0.216000
     56 C29          7.7530    -2.6760     5.0410 cc         1 5N0       0.366900
     57 C30          9.7810    -2.8000     5.7140 cd         1 5N0       0.343000
     58 C31         11.2500    -2.4880     5.9080 c          1 5N0       0.542600
     59 C32         14.4770     0.7120     4.4810 cc         1 5N0      -0.231600
     60 C33         16.4050    -0.2710     5.8390 c3         1 5N0       0.063900
     61 C34         14.0320    -1.1490     5.7590 cc         1 5N0      -0.171000
     62 C35         13.1500     0.3620     4.3260 cd         1 5N0      -0.177000
     63 C36         12.8910    -0.7700     5.1130 cd         1 5N0      -0.023400
     64 C38         13.6960     4.3080     1.3410 cc         1 5N0      -0.183000
     65 C39         14.2930     5.3870     0.7290 cd         1 5N0      -0.224600
     66 C40         16.6330     6.4160     0.8770 c3         1 5N0       0.062900
     67 C41         15.8020     4.3690     2.1290 cd         1 5N0      -0.176000
     68 C42         14.6190     3.6880     2.1950 cc         1 5N0      -0.020400
     69 C44          9.4560     7.0460    -2.3580 cc         1 5N0      -0.237600
     70 C45         10.2400     8.9810    -3.8290 c3         1 5N0       0.061900
     71 C46         11.6750     7.6450    -2.2230 cc         1 5N0      -0.175000
     72 C47         10.0920     6.2260    -1.4500 cd         1 5N0      -0.174000
     73 C48         11.4390     6.6060    -1.3700 cd         1 5N0      -0.022400
     74 C50          5.8800     5.7460    -2.1850 c3         1 5N0       0.100000
     75 C51          5.6020     4.2300    -2.2780 c3         1 5N0      -0.130400
     76 C52          6.4300     3.4410    -3.3290 c3         1 5N0       0.170800
     77 C53          4.6830     3.0200    -5.0620 c3         1 5N0       0.168800
     78 C54          4.3910     2.7710    -6.5640 c3         1 5N0      -0.096400
     79 C55          5.2820     1.6940    -7.2220 c3         1 5N0       0.123000
     80 C56          7.6250     2.0390    -8.1220 c          1 5N0       0.621700
     81 C57          7.4280     1.1490    -9.3340 ca         1 5N0      -0.182600
     82 C58          7.9670     1.5580   -10.5750 ca         1 5N0      -0.040000
     83 C59          7.8300     0.7630   -11.7370 ca         1 5N0      -0.144600
     84 C60          7.1500    -0.4720   -11.6350 ca         1 5N0      -0.073000
     85 C61          6.6340    -0.9010   -10.4020 ca         1 5N0      -0.157000
     86 C62          6.7760    -0.1030    -9.2580 ca         1 5N0      -0.120000
     87 C63          8.4020     1.2270   -13.0660 c          1 5N0       0.715600
     88 C64          6.2890     4.9090    -5.3500 c3         1 5N0       0.151100
     89 N24          6.0300     3.5750    -4.7570 n3         1 5N0      -0.736600
     90 N25          6.6970     2.0350    -7.1080 ns         1 5N0      -0.523900
     91 O10          8.6260     2.7290    -7.9980 o          1 5N0      -0.625100
     92 O11          8.2770     0.5030   -14.0430 o          1 5N0      -0.717000
     93 O12          8.9680     2.3110   -13.1130 o          1 5N0      -0.717000
     94 H1          12.4280     7.3980    -5.1320 h1         1 5N0       0.066033
     95 H2          12.8770     6.3970    -6.5440 h1         1 5N0       0.066033
     96 H3          11.3290     7.2910    -6.5370 h1         1 5N0       0.066033
     97 H4           9.4600     5.6170    -6.3210 h4         1 5N0       0.174000
     98 H5           9.0510     3.3610    -4.8320 h4         1 5N0       0.044100
     99 H6          12.7520     3.1280    -2.7450 hn         1 5N0       0.366500
    100 H7          14.4240     0.6500     0.0010 hn         1 5N0       0.356500
    101 H8          18.6970     2.8560    -1.2870 h1         1 5N0       0.063367
    102 H9          18.3750     4.6070    -1.4540 h1         1 5N0       0.063367
    103 H10         18.1610     3.8080     0.1310 h1         1 5N0       0.063367
    104 H11         16.1980     4.9930    -2.6970 h4         1 5N0       0.182000
    105 H12         12.1030    -2.5420     1.8640 hn         1 5N0       0.326500
    106 H13          7.8110    -2.9600     1.2230 hn         1 5N0       0.310500
    107 H14          2.6770    -2.5670     3.8130 hn         1 5N0       0.408500
    108 H15          2.5890    -1.9050     2.3410 hn         1 5N0       0.408500
    109 H17         16.6200    -4.1800     3.2350 h1         1 5N0       0.061367
    110 H18         17.5890    -2.7650     3.7410 h1         1 5N0       0.061367
    111 H19         16.0970    -3.1870     4.6300 h1         1 5N0       0.061367
    112 H20         17.3310    -0.8840     2.1590 h4         1 5N0       0.170000
    113 H21          6.9270    -1.3800     3.7240 hn         1 5N0       0.331500
    114 H22         13.1490    -1.2740     1.0990 ha         1 5N0       0.132000
    115 H23         10.8760    -0.9690     4.6580 hn         1 5N0       0.351500
    116 H24          9.8210    -7.3480     4.5520 h1         1 5N0       0.059033
    117 H25          8.2410    -6.5190     4.6700 h1         1 5N0       0.059033
    118 H26          8.6330    -7.5000     3.2240 h1         1 5N0       0.059033
    119 H27         11.6890    -5.8320     3.9680 h4         1 5N0       0.174000
    120 H28         13.4030     2.1870     2.9040 hn         1 5N0       0.325500
    121 H29          9.6240    -2.9040     1.5330 ha         1 5N0       0.128000
    122 H30         12.0180     5.1950     0.0160 hn         1 5N0       0.326500
    123 H31          4.9920    -4.0390     1.3720 h1         1 5N0       0.071700
    124 H32          5.6750    -3.1580    -0.0020 h1         1 5N0       0.071700
    125 H33          7.8280     5.5030    -1.3320 hn         1 5N0       0.316500
    126 H34          4.5410    -1.4220     0.9950 hc         1 5N0       0.050200
    127 H35          6.0940    -1.2040     1.7530 hc         1 5N0       0.050200
    128 H36          4.3920    -0.9430     3.4300 h1         1 5N0       0.033700
    129 H37          8.8340    -5.6610     7.3730 h1         1 5N0       0.061700
    130 H38         10.4390    -5.4510     6.6150 h1         1 5N0       0.061700
    131 H39          9.9990    -4.4940     8.0620 h1         1 5N0       0.061700
    132 H40          6.9980    -4.5060     6.0750 h4         1 5N0       0.186000
    133 H41         16.5590    -1.1450     6.4830 h1         1 5N0       0.057700
    134 H42         17.0790    -0.3360     4.9770 h1         1 5N0       0.057700
    135 H43         16.6250     0.6400     6.4080 h1         1 5N0       0.057700
    136 H44         14.2330    -1.9620     6.4440 h4         1 5N0       0.172000
    137 H45         12.4120     0.8650     3.7100 ha         1 5N0       0.131000
    138 H46         12.6780     3.9550     1.2070 ha         1 5N0       0.129000
    139 H47         17.5730     6.1780     1.3890 h1         1 5N0       0.058700
    140 H48         16.8000     6.4040    -0.2070 h1         1 5N0       0.058700
    141 H49         16.2980     7.4140     1.1840 h1         1 5N0       0.058700
    142 H50         16.7450     4.2040     2.6340 h4         1 5N0       0.174000
    143 H51         11.1920     9.4800    -4.0470 h1         1 5N0       0.058033
    144 H52          9.8380     8.5490    -4.7530 h1         1 5N0       0.058033
    145 H53          9.5300     9.7150    -3.4300 h1         1 5N0       0.058033
    146 H54         12.5750     8.2040    -2.4410 h4         1 5N0       0.175000
    147 H55          9.6410     5.4250    -0.8740 ha         1 5N0       0.130000
    148 H56          5.5000     6.2510    -3.0800 h1         1 5N0       0.054700
    149 H57          5.3330     6.1580    -1.3270 h1         1 5N0       0.054700
    150 H58          4.5310     4.0680    -2.4440 hc         1 5N0       0.043700
    151 H59          5.8210     3.7950    -1.2960 hc         1 5N0       0.043700
    152 H60          6.3640     2.3780    -3.0550 h1         1 5N0       0.060700
    153 H61          7.4880     3.7060    -3.2110 h1         1 5N0       0.060700
    154 H62          3.9130     3.7000    -4.6750 h1         1 5N0       0.027200
    155 H63          4.5540     2.0640    -4.5380 h1         1 5N0       0.027200
    156 H64          4.4750     3.7080    -7.1240 hc         1 5N0       0.047700
    157 H65          3.3460     2.4530    -6.6610 hc         1 5N0       0.047700
    158 H66          5.0000     1.6060    -8.2790 h1         1 5N0       0.043200
    159 H67          5.1110     0.7270    -6.7310 h1         1 5N0       0.043200
    160 H68          8.4890     2.5110   -10.6340 ha         1 5N0       0.141000
    161 H69          7.0290    -1.1090   -12.5090 ha         1 5N0       0.127000
    162 H70          6.1290    -1.8610   -10.3330 ha         1 5N0       0.085000
    163 H71          6.3980    -0.4770    -8.3100 ha         1 5N0       0.083000
    164 H72          7.2490     5.3120    -5.0030 h1         1 5N0       0.035367
    165 H73          6.3380     4.8470    -6.4450 h1         1 5N0       0.035367
    166 H74          5.4960     5.6200    -5.0910 h1         1 5N0       0.035367
    167 H76          6.9320     2.6140    -6.3060 hn         1 5N0       0.330500
    168 C10         16.3120     1.2750     0.1980 c          1 5N0       0.547600
    169 C16         13.4810    -3.5270     2.9230 c          1 5N0       0.650700
    170 C22          7.4380    -4.6840     2.2310 c          1 5N0       0.647700
    171 C37         15.1560     1.8610     3.8230 c          1 5N0       0.651700
    172 C43         13.6580     6.3080    -0.2600 c          1 5N0       0.649700
    173 C49          8.0140     6.9880    -2.7100 c          1 5N0       0.649700
@<TRIPOS>BOND
     1     1     2 1   
     2     1    94 1   
     3     1    95 1   
     4     1    96 1   
     5     2     4 1   
     6     2    10 1   
     7     3    13 2   
     8     4     7 2   
     9     4    97 1   
    10     5     7 1   
    11     5    10 2   
    12     6   168 2   
    13     7    98 1   
    14     8    13 1   
    15     8    25 1   
    16     8    99 1   
    17     9   169 2   
    18    10    13 1   
    19    11    16 2   
    20    11    25 1   
    21    12   170 2   
    22    14    16 1   
    23    14    19 1   
    24    14    22 1   
    25    15    53 2   
    26    16   168 1   
    27    17    33 1   
    28    17   100 1   
    29    17   168 1   
    30    18    58 2   
    31    19   101 1   
    32    19   102 1   
    33    19   103 1   
    34    20    29 1   
    35    20    31 1   
    36    20    32 1   
    37    21   171 2   
    38    22    25 2   
    39    22   104 1   
    40    23    46 1   
    41    23   105 1   
    42    23   169 1   
    43    24   172 2   
    44    26    38 1   
    45    26    40 1   
    46    26    42 1   
    47    27   173 2   
    48    28    49 1   
    49    28   106 1   
    50    28   170 1   
    51    29    35 2   
    52    29   169 1   
    53    30    52 1   
    54    30   107 1   
    55    30   108 1   
    56    31   109 1   
    57    31   110 1   
    58    31   111 1   
    59    32    33 2   
    60    32   112 1   
    61    33    35 1   
    62    34    53 1   
    63    34    56 1   
    64    34   113 1   
    65    35   114 1   
    66    36    56 1   
    67    36    57 2   
    68    37    54 1   
    69    37    55 1   
    70    37    57 1   
    71    38    44 2   
    72    38   170 1   
    73    39    58 1   
    74    39    63 1   
    75    39   115 1   
    76    40   116 1   
    77    40   117 1   
    78    40   118 1   
    79    41    59 1   
    80    41    60 1   
    81    41    61 1   
    82    42    46 2   
    83    42   119 1   
    84    43    68 1   
    85    43   120 1   
    86    43   171 1   
    87    44    46 1   
    88    44   121 1   
    89    45    65 1   
    90    45    66 1   
    91    45    67 1   
    92    47    73 1   
    93    47   122 1   
    94    47   172 1   
    95    48    69 1   
    96    48    70 1   
    97    48    71 1   
    98    49    51 1   
    99    49   123 1   
   100    49   124 1   
   101    50    74 1   
   102    50   125 1   
   103    50   173 1   
   104    51    52 1   
   105    51   126 1   
   106    51   127 1   
   107    52    53 1   
   108    52   128 1   
   109    54   129 1   
   110    54   130 1   
   111    54   131 1   
   112    55    56 2   
   113    55   132 1   
   114    57    58 1   
   115    59    62 2   
   116    59   171 1   
   117    60   133 1   
   118    60   134 1   
   119    60   135 1   
   120    61    63 2   
   121    61   136 1   
   122    62    63 1   
   123    62   137 1   
   124    64    65 2   
   125    64    68 1   
   126    64   138 1   
   127    65   172 1   
   128    66   139 1   
   129    66   140 1   
   130    66   141 1   
   131    67    68 2   
   132    67   142 1   
   133    69    72 2   
   134    69   173 1   
   135    70   143 1   
   136    70   144 1   
   137    70   145 1   
   138    71    73 2   
   139    71   146 1   
   140    72    73 1   
   141    72   147 1   
   142    74    75 1   
   143    74   148 1   
   144    74   149 1   
   145    75    76 1   
   146    75   150 1   
   147    75   151 1   
   148    76    89 1   
   149    76   152 1   
   150    76   153 1   
   151    77    78 1   
   152    77    89 1   
   153    77   154 1   
   154    77   155 1   
   155    78    79 1   
   156    78   156 1   
   157    78   157 1   
   158    79    90 1   
   159    79   158 1   
   160    79   159 1   
   161    80    81 1   
   162    80    90 1   
   163    80    91 2   
   164    81    82 ar  
   165    81    86 ar  
   166    82    83 ar  
   167    82   160 1   
   168    83    84 ar  
   169    83    87 1   
   170    84    85 ar  
   171    84   161 1   
   172    85    86 ar  
   173    85   162 1   
   174    86   163 1   
   175    87    92 1   
   176    87    93 1   
   177    88    89 1   
   178    88   164 1   
   179    88   165 1   
   180    88   166 1   
   181    90   167 1   
@<TRIPOS>SUBSTRUCTURE
     1 5N0         1 TEMP              0 ****  ****    0 ROOT
