@<TRIPOS>MOLECULE
5N1
   50    53     1     0     0
SMALL
bcc


@<TRIPOS>ATOM
      1 C4          -3.1510    -0.8500     0.8860 ca         1 5N1       0.552600
      2 C5          -3.1560     0.2220    -0.0060 ca         1 5N1      -0.356600
      3 C6          -4.3960     0.5030    -0.6400 ca         1 5N1       0.775200
      4 N1          -5.4810    -0.2200    -0.3870 nb         1 5N1      -0.869000
      5 N3          -4.2390    -1.5670     1.1370 nb         1 5N1      -0.817000
      6 CBC         -1.0910    -2.2530     0.7160 c3         1 5N1      -0.083100
      7 CBB         -1.8890    -1.2730     1.5750 c3         1 5N1      -0.137700
      8 C2          -5.3560    -1.2160     0.4880 ca         1 5N1       0.954900
      9 NBA         -6.4660    -1.9230     0.7680 nv         1 5N1      -0.951500
     10 NAZ         -4.5100     1.5150    -1.5070 nv         1 5N1      -0.966500
     11 CAG         -2.0030     0.9920    -0.2960 cg         1 5N1      -0.075000
     12 CAH         -1.0310     1.6590    -0.5580 c1         1 5N1      -0.169100
     13 CAI          0.1590     2.4410    -0.8860 c3         1 5N1       0.088700
     14 CAJ          0.2130     2.7540    -2.3890 c3         1 5N1      -0.081100
     15 CAK          1.4190     1.7300    -0.4420 ca         1 5N1      -0.060300
     16 CAL          1.5570     0.3380    -0.4790 ca         1 5N1      -0.101000
     17 CAP          2.5240     2.4280    -0.0130 ca         1 5N1       0.060100
     18 OAW          2.6680     3.7660     0.1190 os         1 5N1      -0.321900
     19 CAX          4.0340     3.9910     0.4500 c5         1 5N1       0.328200
     20 OAY          4.5950     2.7250     0.7700 os         1 5N1      -0.319900
     21 CAO          3.6930     1.7950     0.3790 ca         1 5N1       0.052100
     22 CAN          3.8290     0.4320     0.3610 ca         1 5N1      -0.100000
     23 CAM          2.7220    -0.3120    -0.0880 cp         1 5N1      -0.046000
     24 CAQ          2.7910    -1.7840    -0.1250 cp         1 5N1       0.011000
     25 CAR          3.5020    -2.5060     0.8340 ca         1 5N1      -0.240800
     26 CAS          3.5200    -3.8890     0.7670 ca         1 5N1       0.399700
     27 NAT          2.8910    -4.5910    -0.1690 nb         1 5N1      -0.662000
     28 CAU          2.2160    -3.9060    -1.0850 ca         1 5N1       0.399700
     29 CAV          2.1390    -2.5230    -1.1100 ca         1 5N1      -0.240800
     30 H1          -1.6600    -3.1620     0.5200 hc         1 5N1       0.037367
     31 H2          -0.8240    -1.8120    -0.2440 hc         1 5N1       0.037367
     32 H3          -0.1650    -2.5360     1.2160 hc         1 5N1       0.037367
     33 H4          -1.2730    -0.4010     1.8010 hc         1 5N1       0.063200
     34 H5          -2.1510    -1.7450     2.5230 hc         1 5N1       0.063200
     35 H6          -7.2810    -1.8070     0.1920 hn         1 5N1       0.441300
     36 H7          -6.3780    -2.7840     1.2790 hn         1 5N1       0.441300
     37 H8          -3.7090     2.0500    -1.7910 hn         1 5N1       0.445800
     38 H9          -5.3730     1.6520    -2.0040 hn         1 5N1       0.445800
     39 H10          0.0930     3.3930    -0.3490 hc         1 5N1       0.079700
     40 H11          0.2770     1.8360    -2.9720 hc         1 5N1       0.041033
     41 H12         -0.6770     3.2990    -2.6990 hc         1 5N1       0.041033
     42 H13          1.0840     3.3690    -2.6140 hc         1 5N1       0.041033
     43 H14          0.7050    -0.2470    -0.8010 ha         1 5N1       0.150000
     44 H15          4.5560     4.4250    -0.4090 h2         1 5N1       0.065700
     45 H16          4.1010     4.6540     1.3130 h2         1 5N1       0.065700
     46 H17          4.7520    -0.0450     0.6620 ha         1 5N1       0.156000
     47 H18          4.0190    -2.0060     1.6420 ha         1 5N1       0.143000
     48 H19          4.0650    -4.4550     1.5140 h4         1 5N1       0.019100
     49 H20          1.7100    -4.4840    -1.8500 h4         1 5N1       0.019100
     50 H21          1.5880    -2.0360    -1.9040 ha         1 5N1       0.143000
@<TRIPOS>BOND
     1     1     2 ar  
     2     1     5 ar  
     3     1     7 1   
     4     2     3 ar  
     5     2    11 1   
     6     3     4 ar  
     7     3    10 1   
     8     4     8 ar  
     9     5     8 ar  
    10     6     7 1   
    11     6    30 1   
    12     6    31 1   
    13     6    32 1   
    14     7    33 1   
    15     7    34 1   
    16     8     9 1   
    17     9    35 1   
    18     9    36 1   
    19    10    37 1   
    20    10    38 1   
    21    11    12 3   
    22    12    13 1   
    23    13    14 1   
    24    13    15 1   
    25    13    39 1   
    26    14    40 1   
    27    14    41 1   
    28    14    42 1   
    29    15    16 ar  
    30    15    17 ar  
    31    16    23 ar  
    32    16    43 1   
    33    17    18 1   
    34    17    21 ar  
    35    18    19 1   
    36    19    20 1   
    37    19    44 1   
    38    19    45 1   
    39    20    21 1   
    40    21    22 ar  
    41    22    23 ar  
    42    22    46 1   
    43    23    24 1   
    44    24    25 ar  
    45    24    29 ar  
    46    25    26 ar  
    47    25    47 1   
    48    26    27 ar  
    49    26    48 1   
    50    27    28 ar  
    51    28    29 ar  
    52    28    49 1   
    53    29    50 1   
@<TRIPOS>SUBSTRUCTURE
     1 5N1         1 TEMP              0 ****  ****    0 ROOT
