@<TRIPOS>MOLECULE
5N1
   50    53     1     0     0
SMALL
No Charge or Current Charge


@<TRIPOS>ATOM
      1 C4          -2.9970    -0.7110     0.8260 ca         1 5N1       0.224300
      2 C5          -3.1490     0.4350     0.0080 ca         1 5N1      -0.226000
      3 C6          -4.4720     0.8430    -0.2570 ca         1 5N1       0.446900
      4 N1          -5.5370     0.1960     0.2220 nb         1 5N1      -0.343000
      5 N3          -4.0730    -1.3640     1.3120 nb         1 5N1      -0.291000
      6 CBC         -1.0740    -2.2540     0.1380 c3         1 5N1      -0.083100
      7 CBB         -1.6360    -1.2970     1.2100 c3         1 5N1      -0.137700
      8 C2          -5.2700    -0.8680     0.9810 ca         1 5N1       0.428900
      9 NBA         -6.3430    -1.5270     1.4670 nv         1 5N1      -1.061900
     10 NAZ         -4.7730     1.9210    -1.0270 nv         1 5N1      -1.076900
     11 CAG         -2.0100     1.1360    -0.5250 cg         1 5N1      -0.075000
     12 CAH         -1.0220     1.6950    -0.9560 c1         1 5N1      -0.169100
     13 CAI          0.2300     2.2980    -1.4370 c3         1 5N1       0.088700
     14 CAJ          0.3630     2.1730    -2.9700 c3         1 5N1      -0.081100
     15 CAK          1.4120     1.6520    -0.7080 ca         1 5N1      -0.060300
     16 CAL          1.6440     0.2570    -0.7830 ca         1 5N1      -0.083000
     17 CAP          2.2930     2.4070     0.0840 ca         1 5N1       0.060100
     18 OAW          2.2350     3.7490     0.2940 os         1 5N1      -0.345100
     19 CAX          3.4270     4.0050     1.1180 c5         1 5N1       0.374600
     20 OAY          4.0480     2.7230     1.4820 os         1 5N1      -0.343100
     21 CAO          3.3260     1.8250     0.7640 ca         1 5N1       0.052100
     22 CAN          3.5610     0.4470     0.7170 ca         1 5N1      -0.082000
     23 CAM          2.7080    -0.3720    -0.0720 cp         1 5N1      -0.046000
     24 CAQ          2.9060    -1.8540    -0.1420 cp         1 5N1       0.011000
     25 CAR          3.4050    -2.5950     0.9550 ca         1 5N1      -0.157500
     26 CAS          3.5650    -3.9870     0.8530 ca         1 5N1       0.334400
     27 NAT          3.2620    -4.6830    -0.2660 nb         1 5N1      -0.662000
     28 CAU          2.7840    -3.9900    -1.3240 ca         1 5N1       0.334400
     29 CAV          2.5930    -2.5990    -1.3050 ca         1 5N1      -0.157500
     30 H1          -1.7420    -3.1130    -0.0010 hc         1 5N1       0.037367
     31 H2          -0.9700    -1.7420    -0.8260 hc         1 5N1       0.037367
     32 H3          -0.0880    -2.6300     0.4370 hc         1 5N1       0.037367
     33 H4          -0.9080    -0.4970     1.3930 hc         1 5N1       0.063200
     34 H5          -1.7140    -1.8440     2.1580 hc         1 5N1       0.063200
     35 H6          -7.2510    -1.3290     1.0550 hn         1 5N1       0.496500
     36 H7          -6.2060    -2.4620     1.8430 hn         1 5N1       0.496500
     37 H8          -4.0300     2.3120    -1.6000 hn         1 5N1       0.501000
     38 H9          -5.7210     2.0080    -1.3830 hn         1 5N1       0.501000
     39 H10          0.1850     3.3680    -1.1990 hc         1 5N1       0.079700
     40 H11          0.3630     1.1230    -3.2860 hc         1 5N1       0.041033
     41 H12         -0.4670     2.6830    -3.4750 hc         1 5N1       0.041033
     42 H13          1.2990     2.6320    -3.3100 hc         1 5N1       0.041033
     43 H14          0.9690    -0.3540    -1.3760 ha         1 5N1       0.132000
     44 H15          4.1430     4.5960     0.5350 h2         1 5N1       0.065700
     45 H16          3.1390     4.5490     2.0250 h2         1 5N1       0.065700
     46 H17          4.3930     0.0230     1.2720 ha         1 5N1       0.138000
     47 H18          3.6540    -2.1050     1.8910 ha         1 5N1       0.125000
     48 H19          3.9440    -4.5640     1.6960 h4         1 5N1       0.019100
     49 H20          2.5490    -4.5690    -2.2160 h4         1 5N1       0.019100
     50 H21          2.2170    -2.1090    -2.1970 ha         1 5N1       0.125000
@<TRIPOS>BOND
     1     1     2 ar  
     2     1     5 ar  
     3     1     7 1   
     4     2     3 ar  
     5     2    11 1   
     6     3     4 ar  
     7     3    10 1   
     8     4     8 ar  
     9     5     8 ar  
    10     6     7 1   
    11     6    30 1   
    12     6    31 1   
    13     6    32 1   
    14     7    33 1   
    15     7    34 1   
    16     8     9 1   
    17     9    35 1   
    18     9    36 1   
    19    10    37 1   
    20    10    38 1   
    21    11    12 3   
    22    12    13 1   
    23    13    14 1   
    24    13    15 1   
    25    13    39 1   
    26    14    40 1   
    27    14    41 1   
    28    14    42 1   
    29    15    16 ar  
    30    15    17 ar  
    31    16    23 ar  
    32    16    43 1   
    33    17    18 1   
    34    17    21 ar  
    35    18    19 1   
    36    19    20 1   
    37    19    44 1   
    38    19    45 1   
    39    20    21 1   
    40    21    22 ar  
    41    22    23 ar  
    42    22    46 1   
    43    23    24 1   
    44    24    25 ar  
    45    24    29 ar  
    46    25    26 ar  
    47    25    47 1   
    48    26    27 ar  
    49    26    48 1   
    50    27    28 ar  
    51    28    29 ar  
    52    28    49 1   
    53    29    50 1   
@<TRIPOS>SUBSTRUCTURE
     1 5N1         1 TEMP              0 ****  ****    0 ROOT
