@<TRIPOS>MOLECULE
5N2
   56    60     1     0     0
SMALL
bcc


@<TRIPOS>ATOM
      1 C1           7.3260    -0.6050    -0.9860 ca         1 5N2      -0.100000
      2 C2           7.4640    -1.9080    -0.5010 ca         1 5N2      -0.131000
      3 C3           6.4580    -2.4740     0.2540 ca         1 5N2      -0.068000
      4 C7           3.9360     0.2780     0.3630 cc         1 5N2       0.370900
      5 C10          4.2310    -2.3350     1.3280 c          1 5N2       0.696100
      6 C12          3.7310     1.6870    -0.1270 c3         1 5N2      -0.052400
      7 C13          2.4150     2.2790     0.2860 ca         1 5N2      -0.078300
      8 C14          2.2940     2.9660     1.4900 ca         1 5N2      -0.097000
      9 C15          1.0730     3.4940     1.8830 ca         1 5N2      -0.134000
     10 C16         -0.0480     3.3270     1.0840 ca         1 5N2      -0.099000
     11 C22         -2.3410     1.1640     0.5860 c6         1 5N2       0.087500
     12 C27         -4.8270    -1.2790    -0.6250 ca         1 5N2       0.708200
     13 C30         -6.4790    -3.4850    -0.7610 ca         1 5N2      -0.295300
     14 C31         -6.0760    -2.7510    -1.8660 ca         1 5N2       0.467200
     15 C4           5.3030    -1.7420     0.5290 ca         1 5N2      -0.145600
     16 C5           5.1570    -0.4340     0.0470 ca         1 5N2      -0.117900
     17 C6           6.1880     0.1260    -0.7170 ca         1 5N2      -0.122000
     18 N8           3.0030    -0.2580     1.0640 nd         1 5N2      -0.418300
     19 N9           3.1670    -1.5070     1.5130 ns         1 5N2      -0.305900
     20 O11          4.2530    -3.4630     1.8000 o          1 5N2      -0.619500
     21 C17          0.0630     2.6470    -0.1260 ca         1 5N2      -0.145600
     22 C18          1.2950     2.1430    -0.5240 ca         1 5N2      -0.073000
     23 O20         -0.9920     2.9850    -2.2010 o          1 5N2      -0.592100
     24 N21         -2.2480     2.0280    -0.5780 n          1 5N2      -0.474800
     25 C23         -2.7440    -0.2360     0.1550 c6         1 5N2       0.187800
     26 N24         -3.9890    -0.1970    -0.6000 nh         1 5N2      -0.772300
     27 C25         -3.8680     0.6280    -1.7900 c6         1 5N2       0.187800
     28 C26         -3.4610     2.0330    -1.3760 c6         1 5N2       0.087500
     29 C28         -5.2650    -1.9060     0.5680 ca         1 5N2      -0.188300
     30 C29         -6.0740    -3.0350     0.4810 ca         1 5N2      -0.025000
     31 N32         -5.2720    -1.6990    -1.8040 nb         1 5N2      -0.742000
     32 N34         -4.8310    -0.8910     2.8930 n1         1 5N2      -0.375800
     33 H1           8.1180    -0.1650    -1.5760 ha         1 5N2       0.137000
     34 H2           8.3610    -2.4720    -0.7190 ha         1 5N2       0.140000
     35 H3           6.5600    -3.4820     0.6320 ha         1 5N2       0.159000
     36 H4           4.5510     2.3080     0.2430 hc         1 5N2       0.064200
     37 H5           3.8170     1.6970    -1.2180 hc         1 5N2       0.064200
     38 H6           3.1640     3.0900     2.1240 ha         1 5N2       0.132000
     39 H7           0.9940     4.0380     2.8160 ha         1 5N2       0.136000
     40 H8          -1.0000     3.7360     1.3960 ha         1 5N2       0.139000
     41 H9          -1.3870     1.1120     1.1030 h1         1 5N2       0.069450
     42 H10         -3.0800     1.5650     1.2840 h1         1 5N2       0.069450
     43 H11         -7.1100    -4.3540    -0.8700 ha         1 5N2       0.151000
     44 H12         -6.4110    -3.0330    -2.8570 h4         1 5N2       0.022100
     45 H13          6.1000     1.1340    -1.1000 ha         1 5N2       0.139000
     46 H14          2.3880    -1.8530     2.0560 hn         1 5N2       0.353500
     47 H15          1.3820     1.6240    -1.4720 ha         1 5N2       0.143000
     48 H16         -1.9500    -0.6640    -0.4720 h1         1 5N2       0.058950
     49 H17         -2.8230    -0.8670     1.0350 h1         1 5N2       0.058950
     50 H18         -3.1360     0.2100    -2.4930 h1         1 5N2       0.058950
     51 H19         -4.8270     0.6760    -2.3030 h1         1 5N2       0.058950
     52 H20         -4.2610     2.4760    -0.7770 h1         1 5N2       0.069450
     53 H21         -3.3210     2.6520    -2.2580 h1         1 5N2       0.069450
     54 H22         -6.4020    -3.5290     1.3860 ha         1 5N2       0.147000
     55 C19         -1.1000     2.5520    -1.0620 c          1 5N2       0.684700
     56 C33         -5.0060    -1.3450     1.8470 cg         1 5N2       0.251800
@<TRIPOS>BOND
     1     1     2 ar  
     2     1    17 ar  
     3     1    33 1   
     4     2     3 ar  
     5     2    34 1   
     6     3    15 ar  
     7     3    35 1   
     8     4     6 1   
     9     4    16 1   
    10     4    18 2   
    11     5    15 1   
    12     5    19 1   
    13     5    20 2   
    14     6     7 1   
    15     6    36 1   
    16     6    37 1   
    17     7     8 ar  
    18     7    22 ar  
    19     8     9 ar  
    20     8    38 1   
    21     9    10 ar  
    22     9    39 1   
    23    10    21 ar  
    24    10    40 1   
    25    11    24 1   
    26    11    25 1   
    27    11    41 1   
    28    11    42 1   
    29    12    26 1   
    30    12    29 ar  
    31    12    31 ar  
    32    13    14 ar  
    33    13    30 ar  
    34    13    43 1   
    35    14    31 ar  
    36    14    44 1   
    37    15    16 ar  
    38    16    17 ar  
    39    17    45 1   
    40    18    19 1   
    41    19    46 1   
    42    21    22 ar  
    43    21    55 1   
    44    22    47 1   
    45    23    55 2   
    46    24    28 1   
    47    24    55 1   
    48    25    26 1   
    49    25    48 1   
    50    25    49 1   
    51    26    27 1   
    52    27    28 1   
    53    27    50 1   
    54    27    51 1   
    55    28    52 1   
    56    28    53 1   
    57    29    30 ar  
    58    29    56 1   
    59    30    54 1   
    60    32    56 3   
@<TRIPOS>SUBSTRUCTURE
     1 5N2         1 TEMP              0 ****  ****    0 ROOT
