@<TRIPOS>MOLECULE
5N2
   56    60     1     0     0
SMALL
No Charge or Current Charge


@<TRIPOS>ATOM
      1 C1           7.8640    -0.1500    -0.9960 ca         1 5N2      -0.082000
      2 C2           8.1490    -1.4770    -0.6420 ca         1 5N2      -0.113000
      3 C3           7.1830    -2.2460     0.0250 ca         1 5N2      -0.050000
      4 C7           4.2990     0.2240     0.3260 cc         1 5N2       0.370900
      5 C10          4.8830    -2.4990     1.0530 c          1 5N2       0.553600
      6 C12          3.9410     1.6540    -0.0360 c3         1 5N2      -0.052400
      7 C13          2.5410     2.1140     0.3710 ca         1 5N2      -0.078300
      8 C14          2.3360     2.7530     1.6080 ca         1 5N2      -0.079000
      9 C15          1.0510     3.1840     1.9740 ca         1 5N2      -0.116000
     10 C16         -0.0380     2.9700     1.1130 ca         1 5N2      -0.081000
     11 C22         -2.5770     1.1520     0.6840 c6         1 5N2       0.087500
     12 C27         -5.2980    -1.2220    -0.5090 ca         1 5N2       0.642900
     13 C30         -7.0230    -3.3470    -0.6910 ca         1 5N2      -0.212000
     14 C31         -6.0940    -3.0370    -1.6960 ca         1 5N2       0.401900
     15 C4           5.9260    -1.6880     0.3400 ca         1 5N2      -0.145600
     16 C5           5.6270    -0.3480    -0.0130 ca         1 5N2      -0.117900
     17 C6           6.6150     0.4110    -0.6860 ca         1 5N2      -0.104000
     18 N8           3.3820    -0.5170     0.9620 nd         1 5N2      -0.418300
     19 N9           3.7070    -1.8180     1.2910 ns         1 5N2      -0.238900
     20 O11          5.0440    -3.6610     1.4000 o          1 5N2      -0.544000
     21 C17          0.1440     2.3070    -0.1220 ca         1 5N2      -0.145600
     22 C18          1.4460     1.9030    -0.4900 ca         1 5N2      -0.055000
     23 O20         -0.8150     2.1080    -2.2940 o          1 5N2      -0.592100
     24 N21         -2.3090     1.9320    -0.5620 n          1 5N2      -0.407800
     25 C23         -3.1780    -0.2510     0.3850 c6         1 5N2       0.187800
     26 N24         -4.3700    -0.1640    -0.5060 nh         1 5N2      -0.772300
     27 C25         -4.0950     0.5980    -1.7600 c6         1 5N2       0.187800
     28 C26         -3.5090     2.0000    -1.4460 c6         1 5N2       0.087500
     29 C28         -6.2020    -1.4530     0.5490 ca         1 5N2      -0.123000
     30 C29         -7.0850    -2.5420     0.4560 ca         1 5N2      -0.007000
     31 N32         -5.2440    -1.9920    -1.6120 nb         1 5N2      -0.742000
     32 N34         -6.3030     0.1010     2.6300 n1         1 5N2      -0.465000
     33 H1           8.6140     0.4450    -1.5130 ha         1 5N2       0.119000
     34 H2           9.1170    -1.9100    -0.8830 ha         1 5N2       0.122000
     35 H3           7.4120    -3.2750     0.2970 ha         1 5N2       0.141000
     36 H4           4.6830     2.3230     0.4160 hc         1 5N2       0.064200
     37 H5           4.0550     1.7780    -1.1190 hc         1 5N2       0.064200
     38 H6           3.1720     2.9210     2.2830 ha         1 5N2       0.114000
     39 H7           0.8990     3.6900     2.9250 ha         1 5N2       0.118000
     40 H8          -1.0200     3.3370     1.4050 ha         1 5N2       0.121000
     41 H9          -1.6600     1.0060     1.2690 h1         1 5N2       0.069450
     42 H10         -3.2810     1.7160     1.3120 h1         1 5N2       0.069450
     43 H11         -7.6850    -4.1990    -0.8090 ha         1 5N2       0.133000
     44 H12         -6.0290    -3.6460    -2.5970 h4         1 5N2       0.022100
     45 H13          6.4300     1.4430    -0.9760 ha         1 5N2       0.121000
     46 H14          3.0030    -2.3690     1.7740 hn         1 5N2       0.353500
     47 H15          1.6070     1.4070    -1.4460 ha         1 5N2       0.125000
     48 H16         -2.4040    -0.8710    -0.0920 h1         1 5N2       0.058950
     49 H17         -3.4340    -0.7330     1.3400 h1         1 5N2       0.058950
     50 H18         -3.3820     0.0460    -2.3900 h1         1 5N2       0.058950
     51 H19         -5.0190     0.7280    -2.3420 h1         1 5N2       0.058950
     52 H20         -4.2800     2.5990    -0.9420 h1         1 5N2       0.069450
     53 H21         -3.2720     2.5160    -2.3860 h1         1 5N2       0.069450
     54 H22         -7.8030    -2.7570     1.2460 ha         1 5N2       0.129000
     55 C19         -1.0040     2.0790    -1.0840 c          1 5N2       0.617700
     56 C33         -6.2520    -0.5900     1.6900 cg         1 5N2       0.341000
@<TRIPOS>BOND
     1     1     2 ar  
     2     1    17 ar  
     3     1    33 1   
     4     2     3 ar  
     5     2    34 1   
     6     3    15 ar  
     7     3    35 1   
     8     4     6 1   
     9     4    16 1   
    10     4    18 2   
    11     5    15 1   
    12     5    19 1   
    13     5    20 2   
    14     6     7 1   
    15     6    36 1   
    16     6    37 1   
    17     7     8 ar  
    18     7    22 ar  
    19     8     9 ar  
    20     8    38 1   
    21     9    10 ar  
    22     9    39 1   
    23    10    21 ar  
    24    10    40 1   
    25    11    24 1   
    26    11    25 1   
    27    11    41 1   
    28    11    42 1   
    29    12    26 1   
    30    12    29 ar  
    31    12    31 ar  
    32    13    14 ar  
    33    13    30 ar  
    34    13    43 1   
    35    14    31 ar  
    36    14    44 1   
    37    15    16 ar  
    38    16    17 ar  
    39    17    45 1   
    40    18    19 1   
    41    19    46 1   
    42    21    22 ar  
    43    21    55 1   
    44    22    47 1   
    45    23    55 2   
    46    24    28 1   
    47    24    55 1   
    48    25    26 1   
    49    25    48 1   
    50    25    49 1   
    51    26    27 1   
    52    27    28 1   
    53    27    50 1   
    54    27    51 1   
    55    28    52 1   
    56    28    53 1   
    57    29    30 ar  
    58    29    56 1   
    59    30    54 1   
    60    32    56 3   
@<TRIPOS>SUBSTRUCTURE
     1 5N2         1 TEMP              0 ****  ****    0 ROOT
