@<TRIPOS>MOLECULE
5N3
   43    47     1     0     0
SMALL
No Charge or Current Charge


@<TRIPOS>ATOM
      1 C4           1.9540    -1.3650     0.0190 ca         1 5N3      -0.315300
      2 C14          3.8140     3.4250    -0.0380 cc         1 5N3       0.290900
      3 C5           0.8680    -0.4890     0.0070 ca         1 5N3       0.420900
      4 C7           2.3670     1.2730    -0.0130 ca         1 5N3       0.283500
      5 C9           2.6050     2.7160    -0.0300 cc         1 5N3      -0.287500
      6 C10          1.5970     3.6380    -0.0420 cd         1 5N3      -0.103000
      7 C3           3.2260    -0.8480     0.0150 ca         1 5N3       0.121300
      8 C2           4.2290    -1.9790     0.0120 c5         1 5N3       0.133700
      9 N6           1.0800     0.8410    -0.0080 nb         1 5N3      -0.230000
     10 N8           3.4630     0.4760    -0.0040 nb         1 5N3      -0.184000
     11 N11          2.2620     4.8730    -0.0570 na         1 5N3      -0.006200
     12 N13          3.6540     4.7340    -0.0540 nd         1 5N3      -0.533800
     13 N15         -0.4320    -0.9770     0.0060 nu         1 5N3      -0.849100
     14 C16         -1.6710    -0.4040     0.0090 cc         1 5N3       0.586800
     15 C17         -2.8950    -1.1570     0.0010 ca         1 5N3      -0.257900
     16 C18         -3.1720    -2.5340    -0.0130 ca         1 5N3      -0.030000
     17 C19         -4.5310    -2.9230    -0.0180 ca         1 5N3      -0.147000
     18 C20         -5.5620    -1.9490    -0.0090 ca         1 5N3      -0.053000
     19 C21         -5.2430    -0.5750     0.0050 ca         1 5N3       0.087000
     20 C22         -3.8860    -0.2230     0.0090 ca         1 5N3      -0.010200
     21 N23         -3.2760     1.0150     0.0220 na         1 5N3      -0.056400
     22 N25         -1.8770     0.9150     0.0220 nd         1 5N3      -0.511100
     23 Cl          -6.5060     0.6510     0.0160 cl         1 5N3      -0.193000
     24 C27          2.0100    -2.8670     0.0350 c5         1 5N3       0.235900
     25 O28          3.4130    -3.1470     0.3520 os         1 5N3      -0.463000
     26 C29          5.3430    -1.8280     1.0730 c3         1 5N3      -0.089600
     27 H1           4.8180     3.0180    -0.0320 h4         1 5N3       0.051100
     28 H2           0.5160     3.5370    -0.0420 h4         1 5N3       0.176000
     29 H3           5.4360    -1.3270    -1.7000 hc         1 5N3       0.049033
     30 H4           5.5000    -3.0730    -1.4080 hc         1 5N3       0.049033
     31 H5           4.0620    -2.3480    -2.1470 hc         1 5N3       0.049033
     32 H6           1.8180     5.7910    -0.0680 hn         1 5N3       0.372000
     33 H7          -0.4940    -1.9870     0.0040 hn         1 5N3       0.509000
     34 H8          -2.3790    -3.2780    -0.0200 ha         1 5N3       0.116000
     35 H9          -4.7870    -3.9800    -0.0290 ha         1 5N3       0.122000
     36 H10         -6.6040    -2.2610    -0.0130 ha         1 5N3       0.131000
     37 H11         -3.7510     1.9170     0.0310 hn         1 5N3       0.388000
     38 H12          1.3610    -3.3120     0.8010 h1         1 5N3       0.046700
     39 H13          1.7650    -3.2890    -0.9490 h1         1 5N3       0.046700
     40 H14          4.9160    -1.7060     2.0750 hc         1 5N3       0.049033
     41 H15          5.9970    -2.7080     1.0910 hc         1 5N3       0.049033
     42 H16          5.9670    -0.9500     0.8690 hc         1 5N3       0.049033
     43 C1           4.8420    -2.1960    -1.3920 c3         1 5N3      -0.089600
@<TRIPOS>BOND
     1     1     3 ar  
     2     1     7 ar  
     3     1    24 1   
     4     2     5 1   
     5     2    12 2   
     6     2    27 1   
     7     3     9 ar  
     8     3    13 1   
     9     4     5 1   
    10     4     9 ar  
    11     4    10 ar  
    12     5     6 2   
    13     6    11 1   
    14     6    28 1   
    15     7     8 1   
    16     7    10 ar  
    17     8    25 1   
    18     8    26 1   
    19     8    43 1   
    20    11    12 1   
    21    11    32 1   
    22    13    14 1   
    23    13    33 1   
    24    14    15 1   
    25    14    22 2   
    26    15    16 ar  
    27    15    20 ar  
    28    16    17 ar  
    29    16    34 1   
    30    17    18 ar  
    31    17    35 1   
    32    18    19 ar  
    33    18    36 1   
    34    19    20 ar  
    35    19    23 1   
    36    20    21 1   
    37    21    22 1   
    38    21    37 1   
    39    24    25 1   
    40    24    38 1   
    41    24    39 1   
    42    26    40 1   
    43    26    41 1   
    44    26    42 1   
    45    29    43 1   
    46    30    43 1   
    47    31    43 1   
@<TRIPOS>SUBSTRUCTURE
     1 5N3         1 TEMP              0 ****  ****    0 ROOT
