@<TRIPOS>MOLECULE
5N3
   43    47     1     0     0
SMALL
abcg2


@<TRIPOS>ATOM
      1 C4           1.9780    -1.5100    -0.0990 ca         1 5N3      -0.315300
      2 C14          3.6440     3.3380    -0.0360 cc         1 5N3       0.290900
      3 C5           0.8750    -0.6490    -0.0950 ca         1 5N3       0.420900
      4 C7           2.3130     1.1250    -0.0690 ca         1 5N3       0.283500
      5 C9           2.4620     2.5700    -0.0510 cc         1 5N3      -0.287500
      6 C10          1.4480     3.5100    -0.0450 cd         1 5N3      -0.103000
      7 C3           3.2090    -0.9160    -0.0880 ca         1 5N3       0.121300
      8 C2           4.2820    -1.9680    -0.0970 c5         1 5N3       0.133700
      9 N6           1.0650     0.6620    -0.0800 nb         1 5N3      -0.230000
     10 N8           3.4240     0.3920    -0.0730 nb         1 5N3      -0.184000
     11 N11          2.0480     4.7030    -0.0270 na         1 5N3      -0.006200
     12 N13          3.3780     4.6270    -0.0210 nd         1 5N3      -0.533800
     13 N15         -0.3890    -1.1520    -0.1060 nu         1 5N3      -0.849100
     14 C16         -1.5980    -0.4870    -0.0970 cc         1 5N3       0.586800
     15 C17         -2.8530    -1.1650     0.0180 ca         1 5N3      -0.257900
     16 C18         -3.2680    -2.4940     0.1520 ca         1 5N3      -0.030000
     17 C19         -4.6200    -2.7440     0.2360 ca         1 5N3      -0.147000
     18 C20         -5.5630    -1.6990     0.1890 ca         1 5N3      -0.053000
     19 C21         -5.1600    -0.3930     0.0590 ca         1 5N3       0.087000
     20 C22         -3.7920    -0.1240    -0.0280 ca         1 5N3      -0.010200
     21 N23         -3.0930     1.0180    -0.1550 na         1 5N3      -0.056400
     22 N25         -1.7660     0.8050    -0.2010 nd         1 5N3      -0.511100
     23 CL          -6.2870     0.9150    -0.0010 cl         1 5N3      -0.193000
     24 C27          2.1380    -2.9920    -0.1140 c5         1 5N3       0.235900
     25 O28          3.5430    -3.1930    -0.1010 os         1 5N3      -0.463000
     26 C29          5.1450    -1.8910     1.1560 c3         1 5N3      -0.089600
     27 H1           4.6640     2.9860    -0.0350 h4         1 5N3       0.051100
     28 H2           0.3760     3.3960    -0.0530 h4         1 5N3       0.176000
     29 H3           5.6770    -0.9290    -1.3770 hc         1 5N3       0.049033
     30 H4           5.8650    -2.6840    -1.3890 hc         1 5N3       0.049033
     31 H5           4.5180    -1.9290    -2.2570 hc         1 5N3       0.049033
     32 H6           1.5990     5.6060    -0.0170 hn         1 5N3       0.372000
     33 H7          -0.4630    -2.1570    -0.0990 hn         1 5N3       0.509000
     34 H8          -2.5570    -3.3080     0.1930 ha         1 5N3       0.116000
     35 H9          -4.9760    -3.7600     0.3420 ha         1 5N3       0.122000
     36 H10         -6.6180    -1.9290     0.2590 ha         1 5N3       0.131000
     37 H11         -3.4430     1.9600    -0.2120 hn         1 5N3       0.388000
     38 H12          1.6780    -3.4710     0.7590 h1         1 5N3       0.046700
     39 H13          1.6950    -3.4480    -1.0080 h1         1 5N3       0.046700
     40 H14          4.5380    -1.9500     2.0610 hc         1 5N3       0.049033
     41 H15          5.8710    -2.7050     1.1730 hc         1 5N3       0.049033
     42 H16          5.6940    -0.9500     1.1780 hc         1 5N3       0.049033
     43 C1           5.1340    -1.8740    -1.3580 c3         1 5N3      -0.089600
@<TRIPOS>BOND
     1     1     3 ar  
     2     1     7 ar  
     3     1    24 1   
     4     2     5 1   
     5     2    12 2   
     6     2    27 1   
     7     3     9 ar  
     8     3    13 1   
     9     4     5 1   
    10     4     9 ar  
    11     4    10 ar  
    12     5     6 2   
    13     6    11 1   
    14     6    28 1   
    15     7     8 1   
    16     7    10 ar  
    17     8    25 1   
    18     8    26 1   
    19     8    43 1   
    20    11    12 1   
    21    11    32 1   
    22    13    14 1   
    23    13    33 1   
    24    14    15 1   
    25    14    22 2   
    26    15    16 ar  
    27    15    20 ar  
    28    16    17 ar  
    29    16    34 1   
    30    17    18 ar  
    31    17    35 1   
    32    18    19 ar  
    33    18    36 1   
    34    19    20 ar  
    35    19    23 1   
    36    20    21 1   
    37    21    22 1   
    38    21    37 1   
    39    24    25 1   
    40    24    38 1   
    41    24    39 1   
    42    26    40 1   
    43    26    41 1   
    44    26    42 1   
    45    29    43 1   
    46    30    43 1   
    47    31    43 1   
@<TRIPOS>SUBSTRUCTURE
     1 5N3         1 TEMP              0 ****  ****    0 ROOT
