@<TRIPOS>MOLECULE
5N4
   46    50     1     0     0
SMALL
abcg2


@<TRIPOS>ATOM
      1 C4           1.2500    -2.0120    -0.7930 ca         1 5N4      -0.306300
      2 C14         -0.8950     2.7240    -0.2410 c3         1 5N4       0.075900
      3 C5           0.1010    -1.2190    -0.8270 ca         1 5N4       0.425900
      4 C11          1.9390     3.7780     1.4960 cc         1 5N4       0.221900
      5 C7           1.3090     0.4930     0.0850 ca         1 5N4       0.261500
      6 C9           1.3590     1.8720     0.5690 cd         1 5N4      -0.224500
      7 C10          2.3890     2.4790     1.2650 cc         1 5N4      -0.170000
      8 C3           2.3760    -1.4280    -0.2800 ca         1 5N4       0.121300
      9 C2           3.5090    -2.4170    -0.2890 c5         1 5N4       0.134700
     10 N6           0.1580     0.0350    -0.3860 nb         1 5N4      -0.258000
     11 N8           2.4510    -0.1850     0.1700 nb         1 5N4      -0.176000
     12 N12          0.7340     3.9620     0.9800 nd         1 5N4      -0.518800
     13 N13          0.3890     2.8090     0.4240 na         1 5N4       0.165800
     14 N15         -1.0800    -1.6870    -1.2970 nu         1 5N4      -0.857100
     15 C16         -2.2610    -0.9480    -1.3080 cc         1 5N4       0.570800
     16 C17         -2.9380    -0.3600    -0.2030 ca         1 5N4      -0.220900
     17 C18         -2.7140    -0.2500     1.1750 ca         1 5N4      -0.019000
     18 C19         -3.6470     0.4220     1.9300 ca         1 5N4      -0.152000
     19 C20         -4.7950     0.9890     1.3370 ca         1 5N4      -0.066000
     20 C21         -5.0400     0.8900    -0.0140 ca         1 5N4      -0.138000
     21 C22         -4.0910     0.1990    -0.7760 ca         1 5N4      -0.034200
     22 N23         -4.0330    -0.0950    -2.0960 na         1 5N4      -0.057400
     23 N25         -2.9320    -0.7760    -2.4180 nd         1 5N4      -0.541100
     24 C26          1.5500    -3.4180    -1.1830 c5         1 5N4       0.233900
     25 O27          2.9430    -3.5560    -0.9450 os         1 5N4      -0.462000
     26 C28          3.9170    -2.7800     1.1340 c3         1 5N4      -0.090100
     27 H1          -1.5730     2.0630     0.2930 h1         1 5N4       0.063033
     28 H2          -1.3070     3.7280    -0.2660 h1         1 5N4       0.063033
     29 H3          -0.7830     2.3530    -1.2550 h1         1 5N4       0.063033
     30 H4           2.4380     4.5840     2.0120 h4         1 5N4       0.038100
     31 H5           3.3220     2.0300     1.5600 ha         1 5N4       0.157000
     32 H6           5.1090    -1.0120    -0.6300 hc         1 5N4       0.049867
     33 H7           5.4820    -2.6590    -1.1420 hc         1 5N4       0.049867
     34 H8           4.3990    -1.6530    -2.1150 hc         1 5N4       0.049867
     35 H9          -1.0830    -2.5720    -1.7790 hn         1 5N4       0.519000
     36 H10         -1.8310    -0.6760     1.6320 ha         1 5N4       0.127000
     37 H11         -3.5030     0.5240     2.9980 ha         1 5N4       0.120000
     38 H12         -5.5030     1.5160     1.9630 ha         1 5N4       0.116000
     39 H13         -5.9230     1.3230    -0.4630 ha         1 5N4       0.122000
     40 H14         -4.7030     0.1340    -2.8130 hn         1 5N4       0.382000
     41 H15          0.9770    -4.1410    -0.5880 h1         1 5N4       0.050700
     42 H16          1.3330    -3.6210    -2.2380 h1         1 5N4       0.050700
     43 H17          3.0690    -3.1630     1.7040 hc         1 5N4       0.049867
     44 H18          4.6990    -3.5410     1.1260 hc         1 5N4       0.049867
     45 H19          4.3050    -1.9040     1.6550 hc         1 5N4       0.049867
     46 C1           4.6940    -1.9060    -1.0960 c3         1 5N4      -0.090100
@<TRIPOS>BOND
     1     1     3 ar  
     2     1     8 ar  
     3     1    24 1   
     4     2    13 1   
     5     2    27 1   
     6     2    28 1   
     7     2    29 1   
     8     3    10 ar  
     9     3    14 1   
    10     4     7 1   
    11     4    12 2   
    12     4    30 1   
    13     5     6 1   
    14     5    10 ar  
    15     5    11 ar  
    16     6     7 2   
    17     6    13 1   
    18     7    31 1   
    19     8     9 1   
    20     8    11 ar  
    21     9    25 1   
    22     9    26 1   
    23     9    46 1   
    24    12    13 1   
    25    14    15 1   
    26    14    35 1   
    27    15    16 1   
    28    15    23 2   
    29    16    17 ar  
    30    16    21 ar  
    31    17    18 ar  
    32    17    36 1   
    33    18    19 ar  
    34    18    37 1   
    35    19    20 ar  
    36    19    38 1   
    37    20    21 ar  
    38    20    39 1   
    39    21    22 1   
    40    22    23 1   
    41    22    40 1   
    42    24    25 1   
    43    24    41 1   
    44    24    42 1   
    45    26    43 1   
    46    26    44 1   
    47    26    45 1   
    48    32    46 1   
    49    33    46 1   
    50    34    46 1   
@<TRIPOS>SUBSTRUCTURE
     1 5N4         1 TEMP              0 ****  ****    0 ROOT
