@<TRIPOS>MOLECULE
5N4
   46    50     1     0     0
SMALL
No Charge or Current Charge


@<TRIPOS>ATOM
      1 C4           1.2650    -1.9020    -0.8080 ca         1 5N4      -0.306300
      2 C14         -0.7460     3.0280    -0.3500 c3         1 5N4       0.075900
      3 C5           0.1210    -1.1070    -0.8280 ca         1 5N4       0.425900
      4 C11          2.0120     3.8520     1.6780 cc         1 5N4       0.221900
      5 C7           1.3550     0.5990     0.1180 ca         1 5N4       0.261500
      6 C9           1.4190     1.9870     0.6230 cd         1 5N4      -0.224500
      7 C10          2.3820     2.5290     1.4250 cc         1 5N4      -0.170000
      8 C3           2.4280    -1.3780    -0.3010 ca         1 5N4       0.121300
      9 C2           3.5170    -2.4270    -0.3570 c5         1 5N4       0.134700
     10 N6           0.1730     0.1580    -0.3750 nb         1 5N4      -0.258000
     11 N8           2.5030    -0.1210     0.1750 nb         1 5N4      -0.176000
     12 N12          0.8820     4.2040     1.1040 nd         1 5N4      -0.518800
     13 N13          0.4970     3.0400     0.4430 na         1 5N4       0.165800
     14 N15         -1.0710    -1.5640    -1.3540 nu         1 5N4      -0.857100
     15 C16         -2.3440    -1.0970    -1.3120 cc         1 5N4       0.570800
     16 C17         -2.9940    -0.3750    -0.2470 ca         1 5N4      -0.220900
     17 C18         -2.6200    -0.0410     1.0650 ca         1 5N4      -0.019000
     18 C19         -3.5610     0.6570     1.8540 ca         1 5N4      -0.152000
     19 C20         -4.8420     0.9730     1.3370 ca         1 5N4      -0.066000
     20 C21         -5.1990     0.5790     0.0290 ca         1 5N4      -0.138000
     21 C22         -4.2380    -0.1010    -0.7280 ca         1 5N4      -0.034200
     22 N23         -4.3200    -0.6520    -1.9910 na         1 5N4      -0.057400
     23 N25         -3.1330    -1.3040    -2.3630 nd         1 5N4      -0.541100
     24 C26          1.4850    -3.3210    -1.2490 c5         1 5N4       0.233900
     25 O27          2.9450    -3.4520    -1.2350 os         1 5N4      -0.462000
     26 C28          3.7760    -3.0550     1.0330 c3         1 5N4      -0.090100
     27 H1          -1.4870     2.3880     0.1420 h1         1 5N4       0.063033
     28 H2          -1.1480     4.0440    -0.4320 h1         1 5N4       0.063033
     29 H3          -0.5370     2.6440    -1.3550 h1         1 5N4       0.063033
     30 H4           2.5440     4.5790     2.2780 h4         1 5N4       0.038100
     31 H5           3.2740     2.0470     1.8150 ha         1 5N4       0.157000
     32 H6           5.2900    -1.1350    -0.3650 hc         1 5N4       0.049867
     33 H7           5.5680    -2.7340    -1.0770 hc         1 5N4       0.049867
     34 H8           4.6650    -1.5040    -1.9790 hc         1 5N4       0.049867
     35 H9          -0.9730    -2.2870    -2.0570 hn         1 5N4       0.519000
     36 H10         -1.6480    -0.3120     1.4710 ha         1 5N4       0.127000
     37 H11         -3.3030     0.9440     2.8710 ha         1 5N4       0.120000
     38 H12         -5.5610     1.5040     1.9580 ha         1 5N4       0.116000
     39 H13         -6.1890     0.7890    -0.3700 ha         1 5N4       0.122000
     40 H14         -5.1340    -0.6280    -2.6050 hn         1 5N4       0.382000
     41 H15          1.0440    -4.0350    -0.5410 h1         1 5N4       0.050700
     42 H16          1.1040    -3.5210    -2.2600 h1         1 5N4       0.050700
     43 H17          2.8530    -3.4560     1.4670 hc         1 5N4       0.049867
     44 H18          4.5010    -3.8750     0.9690 hc         1 5N4       0.049867
     45 H19          4.1740    -2.3110     1.7330 hc         1 5N4       0.049867
     46 C1           4.8370    -1.9220    -0.9800 c3         1 5N4      -0.090100
@<TRIPOS>BOND
     1     1     3 ar  
     2     1     8 ar  
     3     1    24 1   
     4     2    13 1   
     5     2    27 1   
     6     2    28 1   
     7     2    29 1   
     8     3    10 ar  
     9     3    14 1   
    10     4     7 1   
    11     4    12 2   
    12     4    30 1   
    13     5     6 1   
    14     5    10 ar  
    15     5    11 ar  
    16     6     7 2   
    17     6    13 1   
    18     7    31 1   
    19     8     9 1   
    20     8    11 ar  
    21     9    25 1   
    22     9    26 1   
    23     9    46 1   
    24    12    13 1   
    25    14    15 1   
    26    14    35 1   
    27    15    16 1   
    28    15    23 2   
    29    16    17 ar  
    30    16    21 ar  
    31    17    18 ar  
    32    17    36 1   
    33    18    19 ar  
    34    18    37 1   
    35    19    20 ar  
    36    19    38 1   
    37    20    21 ar  
    38    20    39 1   
    39    21    22 1   
    40    22    23 1   
    41    22    40 1   
    42    24    25 1   
    43    24    41 1   
    44    24    42 1   
    45    26    43 1   
    46    26    44 1   
    47    26    45 1   
    48    32    46 1   
    49    33    46 1   
    50    34    46 1   
@<TRIPOS>SUBSTRUCTURE
     1 5N4         1 TEMP              0 ****  ****    0 ROOT
