@<TRIPOS>MOLECULE
5N5
   33    35     1     0     0
SMALL
bcc


@<TRIPOS>ATOM
      1 O2           1.1040    -2.5310    -0.9280 oh         1 5N5      -0.566800
      2 C2           1.6310    -1.2560    -0.7090 c5         1 5N5       0.058100
      3 C3           3.1350    -1.2320    -0.4110 c5         1 5N5       0.087100
      4 O3           3.4930    -2.3000     0.4270 oh         1 5N5      -0.581800
      5 C4           3.2480     0.0680     0.3650 c5         1 5N5       0.139100
      6 C5           3.3930     1.2750    -0.5550 c3         1 5N5       0.125800
      7 N5           3.2210     2.5200     0.1690 n8         1 5N5      -0.881800
      8 O4           2.0540     0.1190     1.1520 os         1 5N5      -0.373600
      9 C1           1.0510    -0.6580     0.5830 c5         1 5N5       0.268800
     10 N9          -0.1160     0.1760     0.3560 na         1 5N5      -0.272000
     11 C8          -0.1390     1.5260     0.1280 cc         1 5N5       0.413700
     12 N7          -1.3380     1.9890    -0.0830 nd         1 5N5      -0.565100
     13 C10         -2.1510     0.8900     0.0090 ca         1 5N5      -0.229200
     14 C9          -1.4100    -0.2490     0.2860 ca         1 5N5       0.454800
     15 N3          -1.8890    -1.4800     0.4590 nb         1 5N5      -0.737000
     16 C7          -3.2040    -1.5150     0.3340 ca         1 5N5       0.701900
     17 N1          -4.0380    -0.5130     0.0650 nb         1 5N5      -0.828000
     18 C6          -3.5420     0.7170    -0.1050 ca         1 5N5       0.774200
     19 N6          -4.3720     1.7250    -0.3870 nv         1 5N5      -0.954500
     20 H1           1.1960    -2.7490    -1.8610 ho         1 5N5       0.415000
     21 H2           1.4160    -0.5850    -1.5490 h1         1 5N5       0.056700
     22 H3           3.7370    -1.2160    -1.3290 h1         1 5N5       0.054700
     23 H4           3.0530    -3.0930     0.1000 ho         1 5N5       0.426000
     24 H5           4.0900     0.0490     1.0630 h1         1 5N5       0.096700
     25 H6           4.3670     1.1770    -1.0530 h1         1 5N5       0.033700
     26 H7           2.6430     1.2410    -1.3510 h1         1 5N5       0.033700
     27 H8           3.9840     2.6480     0.8230 hn         1 5N5       0.346800
     28 H9           3.2790     3.2930    -0.4800 hn         1 5N5       0.346800
     29 H11          0.7380    -1.4590     1.2620 h2         1 5N5       0.120700
     30 H12          0.7640     2.1220     0.1630 h5         1 5N5       0.094800
     31 H13         -3.6700    -2.4860     0.4660 h5         1 5N5       0.044100
     32 H14         -4.0390     2.6720    -0.4240 hn         1 5N5       0.448300
     33 H15         -5.3670     1.5760    -0.3700 hn         1 5N5       0.448300
@<TRIPOS>BOND
     1     1     2 1   
     2     1    20 1   
     3     2     3 1   
     4     2     9 1   
     5     2    21 1   
     6     3     4 1   
     7     3     5 1   
     8     3    22 1   
     9     4    23 1   
    10     5     6 1   
    11     5     8 1   
    12     5    24 1   
    13     6     7 1   
    14     6    25 1   
    15     6    26 1   
    16     7    27 1   
    17     7    28 1   
    18     8     9 1   
    19     9    10 1   
    20     9    29 1   
    21    10    11 1   
    22    10    14 1   
    23    11    12 2   
    24    11    30 1   
    25    12    13 1   
    26    13    14 ar  
    27    13    18 ar  
    28    14    15 ar  
    29    15    16 ar  
    30    16    17 ar  
    31    16    31 1   
    32    17    18 ar  
    33    18    19 1   
    34    19    32 1   
    35    19    33 1   
@<TRIPOS>SUBSTRUCTURE
     1 5N5         1 TEMP              0 ****  ****    0 ROOT
