@<TRIPOS>MOLECULE
5N5
   33    35     1     0     0
SMALL
No Charge or Current Charge


@<TRIPOS>ATOM
      1 O2           1.7430    -2.4080    -1.8210 oh         1 5N5      -0.689000
      2 C2           1.9920    -1.1560    -1.1480 c5         1 5N5       0.081300
      3 C3           3.3470    -1.1980    -0.3880 c5         1 5N5       0.110300
      4 O3           3.5180    -2.4720     0.2470 oh         1 5N5      -0.704000
      5 C4           3.1360    -0.0220     0.6210 c5         1 5N5       0.162300
      6 C5           3.3600     1.3970    -0.0030 c3         1 5N5       0.125800
      7 N5           3.1630     2.5130     0.9610 n8         1 5N5      -0.992200
      8 O4           1.7610    -0.1760     1.0640 os         1 5N5      -0.420000
      9 C1           0.9960    -0.8480     0.0330 c5         1 5N5       0.321300
     10 N9          -0.2060    -0.0680    -0.2670 na         1 5N5      -0.301300
     11 C8          -0.3060     0.9780    -1.1930 cc         1 5N5       0.413700
     12 N7          -1.5640     1.4560    -1.2610 nd         1 5N5      -0.565100
     13 C10         -2.2580     0.6700    -0.3350 ca         1 5N5      -0.098600
     14 C9          -1.4460    -0.2530     0.2750 ca         1 5N5       0.126500
     15 N3          -1.9070    -1.1120     1.2060 nb         1 5N5      -0.211000
     16 C7          -3.2240    -1.0040     1.5040 ca         1 5N5       0.175900
     17 N1          -4.1090    -0.1300     0.9630 nb         1 5N5      -0.302000
     18 C6          -3.6180     0.7080     0.0360 ca         1 5N5       0.445900
     19 N6          -4.5020     1.5880    -0.5060 nv         1 5N5      -1.064900
     20 H1           0.9930    -2.2710    -2.4500 ho         1 5N5       0.514000
     21 H2           2.0060    -0.3360    -1.8780 h1         1 5N5       0.056700
     22 H3           4.1900    -0.9970    -1.0650 h1         1 5N5       0.054700
     23 H4           3.0340    -3.0930    -0.3530 ho         1 5N5       0.525000
     24 H5           3.8070    -0.1260     1.4850 h1         1 5N5       0.096700
     25 H6           4.3880     1.4530    -0.3870 h1         1 5N5       0.033700
     26 H7           2.6770     1.5490    -0.8490 h1         1 5N5       0.033700
     27 H8           3.8480     2.4340     1.7230 hn         1 5N5       0.402000
     28 H9           3.4120     3.4020     0.5080 hn         1 5N5       0.402000
     29 H11          0.6370    -1.8010     0.4430 h2         1 5N5       0.120700
     30 H12          0.5400     1.3370    -1.7670 h5         1 5N5       0.094800
     31 H13         -3.6120    -1.6890     2.2550 h5         1 5N5       0.044100
     32 H14         -4.1070     2.3620    -1.0340 hn         1 5N5       0.503500
     33 H15         -5.3660     1.7730    -0.0030 hn         1 5N5       0.503500
@<TRIPOS>BOND
     1     1     2 1   
     2     1    20 1   
     3     2     3 1   
     4     2     9 1   
     5     2    21 1   
     6     3     4 1   
     7     3     5 1   
     8     3    22 1   
     9     4    23 1   
    10     5     6 1   
    11     5     8 1   
    12     5    24 1   
    13     6     7 1   
    14     6    25 1   
    15     6    26 1   
    16     7    27 1   
    17     7    28 1   
    18     8     9 1   
    19     9    10 1   
    20     9    29 1   
    21    10    11 1   
    22    10    14 1   
    23    11    12 2   
    24    11    30 1   
    25    12    13 1   
    26    13    14 ar  
    27    13    18 ar  
    28    14    15 ar  
    29    15    16 ar  
    30    16    17 ar  
    31    16    31 1   
    32    17    18 ar  
    33    18    19 1   
    34    19    32 1   
    35    19    33 1   
@<TRIPOS>SUBSTRUCTURE
     1 5N5         1 TEMP              0 ****  ****    0 ROOT
