@<TRIPOS>MOLECULE
5N6
   44    44     1     0     0
SMALL
abcg2


@<TRIPOS>ATOM
      1 CAF         -6.6050     0.4550     0.1890 c3         1 5N6      -0.157100
      2 CAG         -5.5060    -0.5250    -0.0960 c          1 5N6       0.592100
      3 CAH          2.1630    -4.1910     1.3080 c3         1 5N6      -0.182100
      4 CAI          2.1270    -3.1510     0.2150 c          1 5N6       0.606100
      5 CAX         -3.1600    -0.7860    -0.1870 c3         1 5N6       0.126600
      6 CAY         -1.9320     0.0640     0.0940 c3         1 5N6       0.133300
      7 CAZ         -0.6550    -0.7190    -0.2710 c3         1 5N6       0.151300
      8 NAB          1.9410    -1.8880     0.6390 ns         1 5N6      -0.492900
      9 CBA          1.8880    -0.7290    -0.2180 c6         1 5N6       0.082700
     10 CBB          3.1120     0.1560    -0.0180 c6         1 5N6       0.155300
     11 CBC          0.6100     0.0730     0.0600 c6         1 5N6       0.163300
     12 CBD          2.9680     1.4310    -0.8400 c6         1 5N6      -0.113400
     13 CBE          1.6440     2.1600    -0.6460 c6         1 5N6       0.263000
     14 CBF          1.5100     2.9330     0.7020 c          1 5N6       0.690000
     15 OBJ         -5.6690    -1.6690    -0.4420 o          1 5N6      -0.505000
     16 OBK         -4.3090     0.0240     0.0690 os         1 5N6      -0.431100
     17 OBL          2.2380    -3.4610    -0.9630 o          1 5N6      -0.607100
     18 OBW         -0.6820    -1.1240    -1.6190 oh         1 5N6      -0.721000
     19 OBX         -1.9090     0.5080     1.4290 oh         1 5N6      -0.618000
     20 OBY          4.2420    -0.5900    -0.4180 oh         1 5N6      -0.668000
     21 OBZ          0.5660     1.2290    -0.7430 os         1 5N6      -0.507000
     22 OCA          1.8930     2.3820     1.7440 o          1 5N6      -0.706500
     23 OCB          0.9940     4.0670     0.5850 o          1 5N6      -0.706500
     24 H1          -7.5710    -0.0420     0.1700 hc         1 5N6       0.065700
     25 H2          -6.4630     0.9320     1.1580 hc         1 5N6       0.065700
     26 H3          -6.6030     1.2440    -0.5650 hc         1 5N6       0.065700
     27 H4           1.3090    -4.8590     1.1950 hc         1 5N6       0.050033
     28 H5           3.0630    -4.7960     1.2070 hc         1 5N6       0.050033
     29 H6           2.1380    -3.7730     2.3130 hc         1 5N6       0.050033
     30 H7          -3.1650    -1.1310    -1.2220 h1         1 5N6       0.053200
     31 H8          -3.1680    -1.6670     0.4640 h1         1 5N6       0.053200
     32 H9          -1.9790     0.9670    -0.5230 h1         1 5N6       0.111700
     33 H10         -0.6390    -1.6380     0.3260 h1         1 5N6       0.056700
     34 H11          1.9030    -1.7280     1.6340 hn         1 5N6       0.304500
     35 H12          1.8740    -1.0820    -1.2510 h1         1 5N6       0.102700
     36 H13          3.1820     0.4180     1.0430 h1         1 5N6       0.066700
     37 H14          0.5860     0.3300     1.1260 h1         1 5N6       0.075700
     38 H15          3.7940     2.1150    -0.6220 hc         1 5N6       0.047200
     39 H16          3.0510     1.1610    -1.8990 hc         1 5N6       0.047200
     40 H18         -0.5750    -0.3380    -2.1680 ho         1 5N6       0.523000
     41 H19         -1.8860    -0.2600     2.0110 ho         1 5N6       0.422000
     42 H20          5.0280    -0.0880    -0.1840 ho         1 5N6       0.432000
     43 O1           1.4600     3.0590    -1.6730 oh         1 5N6      -0.680000
     44 H17          1.0720     3.8360    -1.2200 ho         1 5N6       0.490000
@<TRIPOS>BOND
     1     1     2 1   
     2     1    24 1   
     3     1    25 1   
     4     1    26 1   
     5     2    15 2   
     6     2    16 1   
     7     3     4 1   
     8     3    27 1   
     9     3    28 1   
    10     3    29 1   
    11     4     8 1   
    12     4    17 2   
    13     5     6 1   
    14     5    16 1   
    15     5    30 1   
    16     5    31 1   
    17     6     7 1   
    18     6    19 1   
    19     6    32 1   
    20     7    11 1   
    21     7    18 1   
    22     7    33 1   
    23     8     9 1   
    24     8    34 1   
    25     9    10 1   
    26     9    11 1   
    27     9    35 1   
    28    10    12 1   
    29    10    20 1   
    30    10    36 1   
    31    11    21 1   
    32    11    37 1   
    33    12    13 1   
    34    12    38 1   
    35    12    39 1   
    36    13    14 1   
    37    13    21 1   
    38    13    43 1   
    39    14    22 1   
    40    14    23 1   
    41    18    40 1   
    42    19    41 1   
    43    20    42 1   
    44    43    44 1   
@<TRIPOS>SUBSTRUCTURE
     1 5N6         1 TEMP              0 ****  ****    0 ROOT
