@<TRIPOS>MOLECULE
5N6
   44    44     1     0     0
SMALL
No Charge or Current Charge


@<TRIPOS>ATOM
      1 CAF         -6.7250    -0.1510     0.8290 c3         1 5N6      -0.157100
      2 CAG         -5.6470    -0.7320    -0.0750 c          1 5N6       0.592100
      3 CAH          2.0670    -4.1440     1.5750 c3         1 5N6      -0.182100
      4 CAI          2.1420    -3.1770     0.3990 c          1 5N6       0.606100
      5 CAX         -3.2770    -0.7110    -0.5280 c3         1 5N6       0.126600
      6 CAY         -2.0000    -0.0140     0.0100 c3         1 5N6       0.133300
      7 CAZ         -0.6870    -0.5940    -0.5980 c3         1 5N6       0.151300
      8 NAB          1.8160    -1.8760     0.7050 ns         1 5N6      -0.492900
      9 CBA          1.8820    -0.7260    -0.2290 c6         1 5N6       0.082700
     10 CBB          3.1390     0.1540     0.0470 c6         1 5N6       0.155300
     11 CBC          0.6050     0.1610    -0.1290 c6         1 5N6       0.163300
     12 CBD          3.1630     1.3640    -0.9150 c6         1 5N6      -0.113400
     13 CBE          1.8600     2.2000    -0.7990 c6         1 5N6       0.263000
     14 CBF          1.8420     3.0850     0.5580 c          1 5N6       0.690000
     15 OBJ         -5.8720    -1.5320    -0.9730 o          1 5N6      -0.505000
     16 OBK         -4.4050    -0.2500     0.2460 os         1 5N6      -0.431100
     17 OBL          2.4500    -3.5370    -0.7280 o          1 5N6      -0.607100
     18 OBW         -0.7500    -0.5290    -2.0350 oh         1 5N6      -0.721000
     19 OBX         -1.9800    -0.1350     1.4460 oh         1 5N6      -0.618000
     20 OBY          4.3500    -0.6040    -0.1050 oh         1 5N6      -0.668000
     21 OBZ          0.7200     1.3220    -1.0100 os         1 5N6      -0.507000
     22 OCA          1.0980     2.7480     1.4700 o          1 5N6      -0.706500
     23 OCB          2.0530     4.2820     0.3740 o          1 5N6      -0.706500
     24 H1          -7.7260    -0.5240     0.5870 hc         1 5N6       0.065700
     25 H2          -6.4560    -0.3510     1.8720 hc         1 5N6       0.065700
     26 H3          -6.6730     0.9420     0.7820 hc         1 5N6       0.065700
     27 H4           1.0700    -4.0810     2.0260 hc         1 5N6       0.050033
     28 H5           2.3200    -5.1730     1.2950 hc         1 5N6       0.050033
     29 H6           2.7110    -3.7740     2.3820 hc         1 5N6       0.050033
     30 H7          -3.4080    -0.4670    -1.5910 h1         1 5N6       0.053200
     31 H8          -3.1640    -1.8000    -0.4380 h1         1 5N6       0.053200
     32 H9          -2.0610     1.0470    -0.2720 h1         1 5N6       0.111700
     33 H10         -0.6170    -1.6420    -0.2760 h1         1 5N6       0.056700
     34 H11          1.5800    -1.6950     1.6730 hn         1 5N6       0.304500
     35 H12          1.9500    -1.1080    -1.2580 h1         1 5N6       0.102700
     36 H13          3.0690     0.5330     1.0790 h1         1 5N6       0.066700
     37 H14          0.4710     0.4810     0.9130 h1         1 5N6       0.075700
     38 H15          4.0320     2.0020    -0.6990 hc         1 5N6       0.047200
     39 H16          3.2860     1.0070    -1.9470 hc         1 5N6       0.047200
     40 H18         -0.2320     0.2930    -2.2360 ho         1 5N6       0.523000
     41 H19         -2.9180    -0.0520     1.7300 ho         1 5N6       0.422000
     42 H20          5.0940    -0.0070     0.1270 ho         1 5N6       0.432000
     43 O1           1.8180     3.0960    -1.9170 oh         1 5N6      -0.680000
     44 H17          1.8910     3.9770    -1.4720 ho         1 5N6       0.490000
@<TRIPOS>BOND
     1     1     2 1   
     2     1    24 1   
     3     1    25 1   
     4     1    26 1   
     5     2    15 2   
     6     2    16 1   
     7     3     4 1   
     8     3    27 1   
     9     3    28 1   
    10     3    29 1   
    11     4     8 1   
    12     4    17 2   
    13     5     6 1   
    14     5    16 1   
    15     5    30 1   
    16     5    31 1   
    17     6     7 1   
    18     6    19 1   
    19     6    32 1   
    20     7    11 1   
    21     7    18 1   
    22     7    33 1   
    23     8     9 1   
    24     8    34 1   
    25     9    10 1   
    26     9    11 1   
    27     9    35 1   
    28    10    12 1   
    29    10    20 1   
    30    10    36 1   
    31    11    21 1   
    32    11    37 1   
    33    12    13 1   
    34    12    38 1   
    35    12    39 1   
    36    13    14 1   
    37    13    21 1   
    38    13    43 1   
    39    14    22 1   
    40    14    23 1   
    41    18    40 1   
    42    19    41 1   
    43    20    42 1   
    44    43    44 1   
@<TRIPOS>SUBSTRUCTURE
     1 5N6         1 TEMP              0 ****  ****    0 ROOT
