@<TRIPOS>MOLECULE
5N7
  115   120     1     0     0
SMALL
bcc


@<TRIPOS>ATOM
      1 C10         -1.0530    -2.9130     2.5310 c3         1 5N7      -0.035100
      2 C11          0.4420    -3.0010     2.6510 ca         1 5N7      -0.113300
      3 C12          1.1250    -2.2720     3.6170 ca         1 5N7      -0.100500
      4 C13          2.5070    -2.3240     3.7340 ca         1 5N7      -0.150500
      5 C14          3.2440    -3.1210     2.8620 ca         1 5N7       0.077600
      6 C15          2.5680    -3.8590     1.8900 ca         1 5N7      -0.150500
      7 N1          -7.2000     1.0320    -4.0780 nv         1 5N7      -0.924800
      8 C2          -5.1380    -2.9170     0.6750 c3         1 5N7       0.152300
      9 N2          -8.4860     1.8880    -2.3830 n2         1 5N7      -0.850100
     10 C3          -5.7500    -1.8690    -0.2250 ca         1 5N7      -0.087300
     11 N3           4.6350    -3.2630     2.9500 ns         1 5N7      -0.470100
     12 O3          -3.1170     3.6510     2.9760 o          1 5N7      -0.627800
     13 C4          -7.0830    -1.5080    -0.0440 ca         1 5N7      -0.117500
     14 N4           7.1770    -2.1590     0.9090 n3         1 5N7      -0.725600
     15 O4          -0.7450     4.1590     2.2940 o          1 5N7      -0.627800
     16 C5          -7.6860    -0.5750    -0.8720 ca         1 5N7      -0.103500
     17 N5           6.5210    -2.4690    -1.7260 n3         1 5N7      -0.724600
     18 C6          -6.9710     0.0170    -1.9110 ca         1 5N7      -0.201900
     19 N6           4.3200    -0.0410    -2.7810 ns         1 5N7      -0.472100
     20 C7          -7.6220     1.0340    -2.7830 ce         1 5N7       0.662800
     21 N7          -1.9960     2.1240     1.4030 n7         1 5N7      -0.878100
     22 C8          -5.6400    -0.3480    -2.0940 ca         1 5N7      -0.103500
     23 N8          -2.6050     4.6280     0.7450 n7         1 5N7      -0.838100
     24 C9          -5.0350    -1.2730    -1.2560 ca         1 5N7      -0.117500
     25 N9          -0.9000    -0.7620     1.3850 ns         1 5N7      -0.551900
     26 C16          1.1900    -3.8010     1.7910 ca         1 5N7      -0.100500
     27 C17          5.5310    -2.3210     3.3380 c          1 5N7       0.690100
     28 C18          6.9780    -2.7550     3.2940 c3         1 5N7      -0.159400
     29 C19          7.7320    -1.9660     2.2290 c3         1 5N7       0.178800
     30 C20          7.5650    -1.0930    -0.0070 c6         1 5N7       0.170800
     31 C21          7.6250    -1.5790    -1.4500 c6         1 5N7       0.170800
     32 C22          6.3530    -2.7780    -3.1270 c3         1 5N7       0.178800
     33 C23          5.7860    -1.6020    -3.9150 c3         1 5N7      -0.160400
     34 C24          4.4090    -1.2420    -3.4060 c          1 5N7       0.688100
     35 C25          3.1630     0.5070    -2.2080 ca         1 5N7       0.069600
     36 C26          1.9170     0.4130    -2.8230 ca         1 5N7      -0.151500
     37 C27          0.8100     1.0060    -2.2370 ca         1 5N7      -0.095000
     38 C28          0.9070     1.7130    -1.0430 ca         1 5N7      -0.112300
     39 C29          2.1600     1.8120    -0.4450 ca         1 5N7      -0.095000
     40 C30          3.2730     1.2130    -1.0120 ca         1 5N7      -0.151500
     41 C31         -0.3040     2.3510    -0.4200 c3         1 5N7      -0.031100
     42 C32         -0.7720     1.5810     0.8120 c3         1 5N7       0.161500
     43 C33         -3.9100     4.4020     0.1140 c6         1 5N7       0.226500
     44 C34         -4.5010     5.7540    -0.2820 c6         1 5N7      -0.090400
     45 C35         -5.8750     5.5860    -0.9230 c6         1 5N7      -0.072400
     46 C36         -5.8210     4.6430    -2.1190 c6         1 5N7      -0.078400
     47 C37         -5.2190     3.3000    -1.7280 c6         1 5N7      -0.072400
     48 C38         -3.8450     3.4580    -1.0840 c6         1 5N7      -0.090400
     49 C39         -1.1670     0.1510     0.4390 c          1 5N7       0.675100
     50 C40          6.5850    -3.6720    -0.9030 c6         1 5N7       0.170800
     51 C41          7.4370    -3.4620     0.3420 c6         1 5N7       0.170800
     52 C           -1.5000    -2.0680     1.3300 c3         1 5N7       0.037700
     53 S           -2.0760     3.6790     1.9640 s6         1 5N7       1.421800
     54 H1          -1.4840    -3.9100     2.4200 hc         1 5N7       0.061700
     55 H2          -1.4730    -2.4870     3.4460 hc         1 5N7       0.061700
     56 H3           0.5690    -1.6570     4.3160 ha         1 5N7       0.129500
     57 H4           2.9910    -1.7620     4.5170 ha         1 5N7       0.145000
     58 H5           3.1300    -4.4840     1.2050 ha         1 5N7       0.145000
     59 H6          -7.7000     1.6370    -4.7100 hn         1 5N7       0.413300
     60 H7          -6.9020     0.1620    -4.4850 hn         1 5N7       0.413300
     61 H8          -5.5440    -2.8160     1.6830 h1         1 5N7       0.058700
     62 H9          -5.4300    -3.9080     0.3240 h1         1 5N7       0.058700
     63 H10         -8.6030     1.8330    -1.3780 hn         1 5N7       0.390400
     64 H11          5.0100    -4.1090     2.5510 hn         1 5N7       0.315500
     65 H12         -7.6610    -1.9600     0.7540 ha         1 5N7       0.140000
     66 H14         -8.7260    -0.3190    -0.7120 ha         1 5N7       0.139000
     67 H16          5.1850     0.4340    -2.5760 hn         1 5N7       0.316500
     68 H17         -2.4810     1.4860     2.0250 hn         1 5N7       0.458800
     69 H18         -5.0540     0.1080    -2.8820 ha         1 5N7       0.139000
     70 H19         -1.8670     4.9270     0.1180 hn         1 5N7       0.427800
     71 H20         -3.9910    -1.5110    -1.4040 ha         1 5N7       0.140000
     72 H21         -0.4580    -0.4680     2.2420 hn         1 5N7       0.328500
     73 H22          0.6910    -4.3890     1.0290 ha         1 5N7       0.129500
     74 H23          7.4230    -2.5400     4.2680 hc         1 5N7       0.062200
     75 H24          7.0810    -3.8300     3.1390 hc         1 5N7       0.062200
     76 H25          8.8030    -2.2260     2.2790 h1         1 5N7       0.045200
     77 H26          7.6620    -0.9050     2.4770 h1         1 5N7       0.045200
     78 H27          6.8430    -0.2750     0.0770 h1         1 5N7       0.034950
     79 H28          8.5530    -0.6790     0.2430 h1         1 5N7       0.034950
     80 H29          8.6020    -2.0470    -1.6610 h1         1 5N7       0.035200
     81 H30          7.5740    -0.7050    -2.1020 h1         1 5N7       0.035200
     82 H31          7.2920    -3.1100    -3.6000 h1         1 5N7       0.043700
     83 H32          5.6540    -3.6130    -3.2120 h1         1 5N7       0.043700
     84 H33          6.4640    -0.7480    -3.8990 hc         1 5N7       0.061700
     85 H34          5.6880    -1.8980    -4.9620 hc         1 5N7       0.061700
     86 H35          1.8030    -0.1020    -3.7650 ha         1 5N7       0.142000
     87 H36         -0.1500     0.9230    -2.7310 ha         1 5N7       0.139500
     88 H37          2.2770     2.3700     0.4770 ha         1 5N7       0.139500
     89 H38          4.2370     1.2990    -0.5240 ha         1 5N7       0.142000
     90 H39         -0.0530     3.3730    -0.1310 hc         1 5N7       0.062700
     91 H40         -1.1160     2.4080    -1.1450 hc         1 5N7       0.062700
     92 H41          0.0420     1.5600     1.5480 h1         1 5N7       0.060700
     93 H42         -4.5630     3.9630     0.8740 h1         1 5N7       0.078700
     94 H43         -4.5630     6.3950     0.6010 hc         1 5N7       0.048450
     95 H44         -3.8240     6.2500    -0.9870 hc         1 5N7       0.048450
     96 H45         -6.5710     5.1860    -0.1780 hc         1 5N7       0.044700
     97 H46         -6.2650     6.5620    -1.2200 hc         1 5N7       0.044700
     98 H47         -6.8210     4.4920    -2.5310 hc         1 5N7       0.044200
     99 H48         -5.2150     5.0960    -2.9120 hc         1 5N7       0.044200
    100 H49         -5.8930     2.7920    -1.0300 hc         1 5N7       0.044700
    101 H50         -5.1480     2.6510    -2.6030 hc         1 5N7       0.044700
    102 H51         -3.1420     3.8640    -1.8200 hc         1 5N7       0.048450
    103 H52         -3.4630     2.4840    -0.7740 hc         1 5N7       0.048450
    104 H53          5.5690    -3.9560    -0.6120 h1         1 5N7       0.035200
    105 H54          7.0120    -4.5220    -1.4560 h1         1 5N7       0.035200
    106 H55          8.5050    -3.6100     0.1090 h1         1 5N7       0.034950
    107 H56          7.1810    -4.2430     1.0600 h1         1 5N7       0.034950
    108 H57         -1.1930    -2.5710     0.4090 h1         1 5N7       0.076700
    109 H58         -3.1890    -3.5840     0.2010 hn         1 5N7       0.318500
    110 C1          -3.0250    -1.9240     1.3610 c          1 5N7       0.650100
    111 O1           5.2140    -1.2030     3.7060 o          1 5N7      -0.584100
    112 O2           3.4580    -1.9880    -3.5590 o          1 5N7      -0.589100
    113 O5          -1.7450    -0.1140    -0.5980 o          1 5N7      -0.592100
    114 N           -3.6980    -2.8900     0.7230 ns         1 5N7      -0.566900
    115 O           -3.5690    -1.0200     1.9740 o          1 5N7      -0.593100
@<TRIPOS>BOND
     1     1     2 1   
     2     1    52 1   
     3     1    54 1   
     4     1    55 1   
     5     2     3 ar  
     6     2    26 ar  
     7     3     4 ar  
     8     3    56 1   
     9     4     5 ar  
    10     4    57 1   
    11     5     6 ar  
    12     5    11 1   
    13     6    26 ar  
    14     6    58 1   
    15     7    20 1   
    16     7    59 1   
    17     7    60 1   
    18     8    10 1   
    19     8    61 1   
    20     8    62 1   
    21     8   114 1   
    22     9    20 2   
    23     9    63 1   
    24    10    13 ar  
    25    10    24 ar  
    26    11    27 1   
    27    11    64 1   
    28    12    53 2   
    29    13    16 ar  
    30    13    65 1   
    31    14    29 1   
    32    14    30 1   
    33    14    51 1   
    34    15    53 2   
    35    16    18 ar  
    36    16    66 1   
    37    17    31 1   
    38    17    32 1   
    39    17    50 1   
    40    18    20 1   
    41    18    22 ar  
    42    19    34 1   
    43    19    35 1   
    44    19    67 1   
    45    21    42 1   
    46    21    53 1   
    47    21    68 1   
    48    22    24 ar  
    49    22    69 1   
    50    23    43 1   
    51    23    53 1   
    52    23    70 1   
    53    24    71 1   
    54    25    49 1   
    55    25    52 1   
    56    25    72 1   
    57    26    73 1   
    58    27    28 1   
    59    27   111 2   
    60    28    29 1   
    61    28    74 1   
    62    28    75 1   
    63    29    76 1   
    64    29    77 1   
    65    30    31 1   
    66    30    78 1   
    67    30    79 1   
    68    31    80 1   
    69    31    81 1   
    70    32    33 1   
    71    32    82 1   
    72    32    83 1   
    73    33    34 1   
    74    33    84 1   
    75    33    85 1   
    76    34   112 2   
    77    35    36 ar  
    78    35    40 ar  
    79    36    37 ar  
    80    36    86 1   
    81    37    38 ar  
    82    37    87 1   
    83    38    39 ar  
    84    38    41 1   
    85    39    40 ar  
    86    39    88 1   
    87    40    89 1   
    88    41    42 1   
    89    41    90 1   
    90    41    91 1   
    91    42    49 1   
    92    42    92 1   
    93    43    44 1   
    94    43    48 1   
    95    43    93 1   
    96    44    45 1   
    97    44    94 1   
    98    44    95 1   
    99    45    46 1   
   100    45    96 1   
   101    45    97 1   
   102    46    47 1   
   103    46    98 1   
   104    46    99 1   
   105    47    48 1   
   106    47   100 1   
   107    47   101 1   
   108    48   102 1   
   109    48   103 1   
   110    49   113 2   
   111    50    51 1   
   112    50   104 1   
   113    50   105 1   
   114    51   106 1   
   115    51   107 1   
   116    52   108 1   
   117    52   110 1   
   118   109   114 1   
   119   110   114 1   
   120   110   115 2   
@<TRIPOS>SUBSTRUCTURE
     1 5N7         1 TEMP              0 ****  ****    0 ROOT
