@<TRIPOS>MOLECULE
5N7
  115   120     1     0     0
SMALL
No Charge or Current Charge


@<TRIPOS>ATOM
      1 C10         -1.2670    -2.9890     2.3380 c3         1 5N7      -0.035100
      2 C11          0.2410    -2.7710     2.4110 ca         1 5N7      -0.113300
      3 C12          0.7870    -1.8900     3.3640 ca         1 5N7      -0.082500
      4 C13          2.1780    -1.7220     3.4620 ca         1 5N7      -0.132500
      5 C14          3.0450    -2.4380     2.6100 ca         1 5N7      -0.015000
      6 C15          2.4950    -3.3150     1.6570 ca         1 5N7      -0.132500
      7 N1          -8.2680    -4.0690    -5.1970 nv         1 5N7      -1.035200
      8 C2          -5.3900    -3.9600     0.7510 c3         1 5N7       0.152300
      9 N2          -7.6410    -1.9200    -5.1490 n2         1 5N7      -0.850100
     10 C3          -5.9780    -3.7300    -0.6330 ca         1 5N7      -0.087300
     11 N3           4.4570    -2.3620     2.7230 ns         1 5N7      -0.144000
     12 O3          -3.0960     3.9940     2.8790 o          1 5N7      -0.557000
     13 C4          -6.4180    -2.4500    -1.0130 ca         1 5N7      -0.099500
     14 N4           7.2230    -1.6470     0.9350 n3         1 5N7      -0.725600
     15 O4          -0.6300     3.8910     2.1410 o          1 5N7      -0.557000
     16 C5          -6.9580    -2.2310    -2.2920 ca         1 5N7      -0.085500
     17 N5           6.6350    -2.5040    -1.6750 n3         1 5N7      -0.724600
     18 C6          -7.0840    -3.2960    -3.2160 ca         1 5N7      -0.201900
     19 N6           3.9810    -0.6470    -2.6420 ns         1 5N7      -0.146000
     20 C7          -7.6230    -3.0580    -4.5910 ce         1 5N7       0.662800
     21 N7          -2.4380     2.5110     1.0210 n7         1 5N7      -0.933300
     22 C8          -6.6180    -4.5750    -2.8320 ca         1 5N7      -0.085500
     23 N8          -2.4260     4.7560     0.5530 n7         1 5N7      -0.893300
     24 C9          -6.0760    -4.7900    -1.5520 ca         1 5N7      -0.099500
     25 N9          -1.5690    -0.7770     1.2360 ns         1 5N7      -0.484900
     26 C16          1.1030    -3.4760     1.5510 ca         1 5N7      -0.082500
     27 C17          5.2820    -1.3970     3.2820 c          1 5N7       0.623100
     28 C18          6.7450    -1.8180     3.4210 c3         1 5N7      -0.159400
     29 C19          7.6000    -1.2060     2.2980 c3         1 5N7       0.178800
     30 C20          7.9160    -0.8710    -0.1330 c6         1 5N7       0.170800
     31 C21          7.4380    -1.2370    -1.5830 c6         1 5N7       0.170800
     32 C22          6.3950    -2.9750    -3.0590 c3         1 5N7       0.178800
     33 C23          5.5720    -2.0050    -3.9240 c3         1 5N7      -0.160400
     34 C24          4.1650    -1.8230    -3.3550 c          1 5N7       0.621100
     35 C25          2.8050    -0.0230    -2.1510 ca         1 5N7      -0.023000
     36 C26          1.5330    -0.2710    -2.7050 ca         1 5N7      -0.133500
     37 C27          0.4080     0.4320    -2.2420 ca         1 5N7      -0.077000
     38 C28          0.5350     1.3870    -1.2160 ca         1 5N7      -0.112300
     39 C29          1.8020     1.6250    -0.6520 ca         1 5N7      -0.077000
     40 C30          2.9300     0.9300    -1.1230 ca         1 5N7      -0.133500
     41 C31         -0.6770     2.1880    -0.7490 c3         1 5N7      -0.031100
     42 C32         -1.3510     1.5980     0.5180 c3         1 5N7       0.161500
     43 C33         -3.3650     5.8820     0.6690 c6         1 5N7       0.226500
     44 C34         -2.7190     7.0890     1.4060 c6         1 5N7      -0.090400
     45 C35         -3.6830     8.3020     1.4640 c6         1 5N7      -0.072400
     46 C36         -4.1530     8.7130     0.0480 c6         1 5N7      -0.078400
     47 C37         -4.7940     7.5160    -0.6960 c6         1 5N7      -0.072400
     48 C38         -3.8250     6.3080    -0.7490 c6         1 5N7      -0.090400
     49 C39         -1.8730     0.1420     0.2500 c          1 5N7       0.608100
     50 C40          7.2420    -3.5560    -0.8080 c6         1 5N7       0.170800
     51 C41          7.3930    -3.1200     0.6920 c6         1 5N7       0.170800
     52 C           -1.9570    -2.2040     1.1960 c3         1 5N7       0.037700
     53 S           -2.0610     3.8630     1.8620 s6         1 5N7       1.280200
     54 H1          -1.4800    -4.0580     2.2170 hc         1 5N7       0.061700
     55 H2          -1.7300    -2.7020     3.2910 hc         1 5N7       0.061700
     56 H3           0.1350    -1.3470     4.0460 ha         1 5N7       0.111500
     57 H4           2.5700    -1.0580     4.2270 ha         1 5N7       0.127000
     58 H5           3.1500    -3.8810     0.9970 ha         1 5N7       0.127000
     59 H6          -8.8850    -3.7650    -5.9400 hn         1 5N7       0.468500
     60 H7          -8.6360    -4.7820    -4.5800 hn         1 5N7       0.468500
     61 H8          -5.9590    -3.3890     1.4970 h1         1 5N7       0.058700
     62 H9          -5.4750    -5.0220     1.0180 h1         1 5N7       0.058700
     63 H10         -7.0720    -1.2850    -4.5750 hn         1 5N7       0.390400
     64 H11          4.9440    -3.1780     2.3760 hn         1 5N7       0.149000
     65 H12         -6.3380    -1.6190    -0.3150 ha         1 5N7       0.122000
     66 H14         -7.2940    -1.2290    -2.5510 ha         1 5N7       0.121000
     67 H16          4.8270    -0.1150    -2.4890 hn         1 5N7       0.150000
     68 H17         -2.9110     2.0320     1.7920 hn         1 5N7       0.514000
     69 H18         -6.6620    -5.4110    -3.5270 ha         1 5N7       0.121000
     70 H19         -2.8460     3.9780     0.0480 hn         1 5N7       0.483000
     71 H20         -5.7270    -5.7830    -1.2790 ha         1 5N7       0.122000
     72 H21         -1.0290    -0.4460     2.0260 hn         1 5N7       0.328500
     73 H22          0.6960    -4.1630     0.8130 ha         1 5N7       0.111500
     74 H23          7.1300    -1.4450     4.3760 hc         1 5N7       0.062200
     75 H24          6.8380    -2.9080     3.3850 hc         1 5N7       0.062200
     76 H25          8.6540    -1.4520     2.4890 h1         1 5N7       0.045200
     77 H26          7.5140    -0.1120     2.3680 h1         1 5N7       0.045200
     78 H27          7.7710     0.2090     0.0190 h1         1 5N7       0.034950
     79 H28          8.9990    -1.0540    -0.0730 h1         1 5N7       0.034950
     80 H29          8.3260    -1.2990    -2.2280 h1         1 5N7       0.035200
     81 H30          6.8390    -0.3940    -1.9560 h1         1 5N7       0.035200
     82 H31          7.3560    -3.1570    -3.5590 h1         1 5N7       0.043700
     83 H32          5.8640    -3.9370    -3.0340 h1         1 5N7       0.043700
     84 H33          6.0940    -1.0440    -3.9780 hc         1 5N7       0.061700
     85 H34          5.4920    -2.4380    -4.9280 hc         1 5N7       0.061700
     86 H35          1.4050    -0.9800    -3.5180 ha         1 5N7       0.124000
     87 H36         -0.5630     0.2450    -2.6980 ha         1 5N7       0.121500
     88 H37          1.9180     2.3640     0.1380 ha         1 5N7       0.121500
     89 H38          3.9060     1.1390    -0.6910 ha         1 5N7       0.124000
     90 H39         -0.3580     3.2170    -0.5510 hc         1 5N7       0.062700
     91 H40         -1.4210     2.2580    -1.5510 hc         1 5N7       0.062700
     92 H41         -0.5700     1.4940     1.2840 h1         1 5N7       0.060700
     93 H42         -4.2610     5.5640     1.2280 h1         1 5N7       0.078700
     94 H43         -2.4370     6.8080     2.4290 hc         1 5N7       0.048450
     95 H44         -1.7910     7.3810     0.8960 hc         1 5N7       0.048450
     96 H45         -4.5540     8.0520     2.0860 hc         1 5N7       0.044700
     97 H46         -3.1850     9.1510     1.9520 hc         1 5N7       0.044700
     98 H47         -4.8750     9.5380     0.1190 hc         1 5N7       0.044200
     99 H48         -3.2990     9.0930    -0.5300 hc         1 5N7       0.044200
    100 H49         -5.7260     7.2220    -0.1920 hc         1 5N7       0.044700
    101 H50         -5.0720     7.8160    -1.7150 hc         1 5N7       0.044700
    102 H51         -2.9510     6.5660    -1.3620 hc         1 5N7       0.048450
    103 H52         -4.3200     5.4650    -1.2500 hc         1 5N7       0.048450
    104 H53          6.6430    -4.4780    -0.8440 h1         1 5N7       0.035200
    105 H54          8.2400    -3.8140    -1.1920 h1         1 5N7       0.035200
    106 H55          8.3800    -3.4540     1.0450 h1         1 5N7       0.034950
    107 H56          6.6480    -3.6780     1.2750 h1         1 5N7       0.034950
    108 H57         -1.6280    -2.6190     0.2340 h1         1 5N7       0.076700
    109 H58         -3.2950    -4.2280     0.4270 hn         1 5N7       0.318500
    110 C1          -3.5040    -2.3760     1.2800 c          1 5N7       0.583100
    111 O1           4.8880    -0.3030     3.6770 o          1 5N7      -0.584100
    112 O2           3.2770    -2.6450    -3.5610 o          1 5N7      -0.589100
    113 O5          -2.5090    -0.1800    -0.7480 o          1 5N7      -0.592100
    114 N           -3.9770    -3.5800     0.8010 ns         1 5N7      -0.499900
    115 O           -4.2540    -1.5250     1.7450 o          1 5N7      -0.593100
@<TRIPOS>BOND
     1     1     2 1   
     2     1    52 1   
     3     1    54 1   
     4     1    55 1   
     5     2     3 ar  
     6     2    26 ar  
     7     3     4 ar  
     8     3    56 1   
     9     4     5 ar  
    10     4    57 1   
    11     5     6 ar  
    12     5    11 1   
    13     6    26 ar  
    14     6    58 1   
    15     7    20 1   
    16     7    59 1   
    17     7    60 1   
    18     8    10 1   
    19     8    61 1   
    20     8    62 1   
    21     8   114 1   
    22     9    20 2   
    23     9    63 1   
    24    10    13 ar  
    25    10    24 ar  
    26    11    27 1   
    27    11    64 1   
    28    12    53 2   
    29    13    16 ar  
    30    13    65 1   
    31    14    29 1   
    32    14    30 1   
    33    14    51 1   
    34    15    53 2   
    35    16    18 ar  
    36    16    66 1   
    37    17    31 1   
    38    17    32 1   
    39    17    50 1   
    40    18    20 1   
    41    18    22 ar  
    42    19    34 1   
    43    19    35 1   
    44    19    67 1   
    45    21    42 1   
    46    21    53 1   
    47    21    68 1   
    48    22    24 ar  
    49    22    69 1   
    50    23    43 1   
    51    23    53 1   
    52    23    70 1   
    53    24    71 1   
    54    25    49 1   
    55    25    52 1   
    56    25    72 1   
    57    26    73 1   
    58    27    28 1   
    59    27   111 2   
    60    28    29 1   
    61    28    74 1   
    62    28    75 1   
    63    29    76 1   
    64    29    77 1   
    65    30    31 1   
    66    30    78 1   
    67    30    79 1   
    68    31    80 1   
    69    31    81 1   
    70    32    33 1   
    71    32    82 1   
    72    32    83 1   
    73    33    34 1   
    74    33    84 1   
    75    33    85 1   
    76    34   112 2   
    77    35    36 ar  
    78    35    40 ar  
    79    36    37 ar  
    80    36    86 1   
    81    37    38 ar  
    82    37    87 1   
    83    38    39 ar  
    84    38    41 1   
    85    39    40 ar  
    86    39    88 1   
    87    40    89 1   
    88    41    42 1   
    89    41    90 1   
    90    41    91 1   
    91    42    49 1   
    92    42    92 1   
    93    43    44 1   
    94    43    48 1   
    95    43    93 1   
    96    44    45 1   
    97    44    94 1   
    98    44    95 1   
    99    45    46 1   
   100    45    96 1   
   101    45    97 1   
   102    46    47 1   
   103    46    98 1   
   104    46    99 1   
   105    47    48 1   
   106    47   100 1   
   107    47   101 1   
   108    48   102 1   
   109    48   103 1   
   110    49   113 2   
   111    50    51 1   
   112    50   104 1   
   113    50   105 1   
   114    51   106 1   
   115    51   107 1   
   116    52   108 1   
   117    52   110 1   
   118   109   114 1   
   119   110   114 1   
   120   110   115 2   
@<TRIPOS>SUBSTRUCTURE
     1 5N7         1 TEMP              0 ****  ****    0 ROOT
