@<TRIPOS>MOLECULE
5N8
   53    57     1     0     0
SMALL
No Charge or Current Charge


@<TRIPOS>ATOM
      1 C1          11.9390   -30.8510    20.5190 c3         1 5N8      -0.106100
      2 C2          10.5390   -30.7470    21.1870 c6         1 5N8       0.102700
      3 C3          10.5900   -29.8270    22.4470 c6         1 5N8       0.061600
      4 N6           3.4280   -33.2410    22.3300 nc         1 5N8      -0.380300
      5 C7           9.7090   -28.8690    19.7350 c6         1 5N8       0.064700
      6 C9           8.0160   -32.3150    20.4460 ca         1 5N8      -0.149600
      7 C10          8.9770   -33.2320    19.9670 ca         1 5N8      -0.067000
      8 C11          8.7890   -34.6110    20.1420 ca         1 5N8      -0.117000
      9 C12          7.6340   -35.0950    20.7750 ca         1 5N8      -0.057000
     10 C13          6.6400   -34.1990    21.2270 ca         1 5N8      -0.160300
     11 C14          6.8460   -32.8120    21.0580 ca         1 5N8      -0.038000
     12 C15          5.3560   -34.7040    21.9090 c3         1 5N8       0.222000
     13 C16          4.1060   -33.9570    21.4210 cd         1 5N8       0.298900
     14 C19          3.8330   -34.6880    17.6690 ca         1 5N8      -0.078000
     15 C20          2.6940   -33.9460    17.3240 ca         1 5N8      -0.106000
     16 C21          2.0130   -33.2130    18.3070 ca         1 5N8      -0.049000
     17 C22          2.4710   -33.2170    19.6420 ca         1 5N8      -0.143600
     18 F5           5.1830   -36.0320    21.7020 f          1 5N8      -0.101000
     19 F4           5.5170   -34.5850    23.2510 f          1 5N8      -0.101000
     20 N5           2.3130   -32.5340    21.9480 ns         1 5N8      -0.240900
     21 C23          1.7450   -32.4320    20.6990 c          1 5N8       0.555600
     22 O2           0.7440   -31.7620    20.4870 o          1 5N8      -0.529000
     23 C18          4.2950   -34.6970    18.9960 ca         1 5N8      -0.093000
     24 C17          3.6250   -33.9630    20.0030 ca         1 5N8      -0.104900
     25 O1           7.2010   -30.1130    20.0670 o          1 5N8      -0.570100
     26 N4           9.4860   -30.2790    20.2210 n          1 5N8      -0.423800
     27 C4          10.1550   -27.9390    20.8400 cc         1 5N8       0.390800
     28 N2          10.2470   -26.6200    20.8270 nd         1 5N8      -0.347000
     29 N3          10.7220   -26.2140    22.0540 nd         1 5N8      -0.289000
     30 C5          10.9200   -27.2910    22.8020 cc         1 5N8       0.274800
     31 C6          11.4360   -27.3060    24.2330 c3         1 5N8       0.293700
     32 F3          11.6020   -26.0580    24.7330 f          1 5N8      -0.096667
     33 F2          12.6340   -27.9290    24.3220 f          1 5N8      -0.096667
     34 F1          10.5870   -27.9540    25.0640 f          1 5N8      -0.096667
     35 N1          10.5770   -28.4000    22.0570 na         1 5N8      -0.348000
     36 H1          12.6700   -31.2920    21.2080 hc         1 5N8       0.054033
     37 H2          11.9040   -31.4870    19.6270 hc         1 5N8       0.054033
     38 H3          12.3260   -29.8720    20.2150 hc         1 5N8       0.054033
     39 H4          10.2950   -31.7540    21.5520 h1         1 5N8       0.083700
     40 H5           9.7090   -30.0250    23.0730 h1         1 5N8       0.081200
     41 H6          11.4840   -30.0530    23.0470 h1         1 5N8       0.081200
     42 H7          10.4730   -28.8830    18.9460 h1         1 5N8       0.096700
     43 H8           8.7990   -28.4670    19.2690 h1         1 5N8       0.096700
     44 H9           9.8660   -32.8820    19.4470 ha         1 5N8       0.125000
     45 H10          9.5390   -35.3100    19.7780 ha         1 5N8       0.127000
     46 H11          7.5160   -36.1700    20.9000 ha         1 5N8       0.136000
     47 H12          6.0960   -32.1080    21.4160 ha         1 5N8       0.137000
     48 H13          4.3600   -35.2570    16.9070 ha         1 5N8       0.121000
     49 H14          2.3380   -33.9410    16.2960 ha         1 5N8       0.125000
     50 H15          1.1290   -32.6410    18.0300 ha         1 5N8       0.143000
     51 H16          1.8340   -32.0090    22.6740 hn         1 5N8       0.360500
     52 H17          5.1790   -35.2840    19.2240 ha         1 5N8       0.127000
     53 C8           8.1800   -30.8230    20.2620 c          1 5N8       0.617700
@<TRIPOS>BOND
     1     1     2 1   
     2     1    36 1   
     3     1    37 1   
     4     1    38 1   
     5     2     3 1   
     6     2    26 1   
     7     2    39 1   
     8     3    35 1   
     9     3    40 1   
    10     3    41 1   
    11     4    13 2   
    12     4    20 1   
    13     5    26 1   
    14     5    27 1   
    15     5    42 1   
    16     5    43 1   
    17     6     7 ar  
    18     6    11 ar  
    19     6    53 1   
    20     7     8 ar  
    21     7    44 1   
    22     8     9 ar  
    23     8    45 1   
    24     9    10 ar  
    25     9    46 1   
    26    10    11 ar  
    27    10    12 1   
    28    11    47 1   
    29    12    13 1   
    30    12    18 1   
    31    12    19 1   
    32    13    24 1   
    33    14    15 ar  
    34    14    23 ar  
    35    14    48 1   
    36    15    16 ar  
    37    15    49 1   
    38    16    17 ar  
    39    16    50 1   
    40    17    21 1   
    41    17    24 ar  
    42    20    21 1   
    43    20    51 1   
    44    21    22 2   
    45    23    24 ar  
    46    23    52 1   
    47    25    53 2   
    48    26    53 1   
    49    27    28 2   
    50    27    35 1   
    51    28    29 1   
    52    29    30 2   
    53    30    31 1   
    54    30    35 1   
    55    31    32 1   
    56    31    33 1   
    57    31    34 1   
@<TRIPOS>SUBSTRUCTURE
     1 5N8         1 TEMP              0 ****  ****    0 ROOT
