@<TRIPOS>MOLECULE
5N8
   53    57     1     0     0
SMALL
abcg2


@<TRIPOS>ATOM
      1 C1          11.8750   -30.8550    20.7680 c3         1 5N8      -0.106100
      2 C2          10.3960   -30.8430    21.1450 c6         1 5N8       0.102700
      3 C3          10.0990   -30.0430    22.4140 c6         1 5N8       0.061600
      4 N6           4.0340   -32.7400    22.3600 nc         1 5N8      -0.380300
      5 C7           9.8010   -28.9310    19.6640 c6         1 5N8       0.064700
      6 C9           8.3140   -32.4140    19.8910 ca         1 5N8      -0.149600
      7 C10          9.1850   -33.4270    19.4920 ca         1 5N8      -0.067000
      8 C11          8.9190   -34.7450    19.8420 ca         1 5N8      -0.117000
      9 C12          7.7950   -35.0570    20.5970 ca         1 5N8      -0.057000
     10 C13          6.9240   -34.0450    20.9900 ca         1 5N8      -0.160300
     11 C14          7.1780   -32.7260    20.6280 ca         1 5N8      -0.038000
     12 C15          5.7180   -34.3470    21.8490 c3         1 5N8       0.222000
     13 C16          4.4610   -33.5760    21.4760 cd         1 5N8       0.298900
     14 C19          3.6110   -34.7620    18.0020 ca         1 5N8      -0.078000
     15 C20          2.4750   -33.9870    17.7420 ca         1 5N8      -0.106000
     16 C21          2.0100   -33.1050    18.6970 ca         1 5N8      -0.049000
     17 C22          2.6760   -32.9870    19.9190 ca         1 5N8      -0.143600
     18 F5           5.4230   -35.6960    21.8020 f          1 5N8      -0.101000
     19 F4           6.0390   -34.1020    23.1620 f          1 5N8      -0.101000
     20 N5           2.9400   -32.0180    22.0790 ns         1 5N8      -0.240900
     21 C23          2.1840   -32.0490    20.9290 c          1 5N8       0.555600
     22 O2           1.1960   -31.3290    20.8140 o          1 5N8      -0.529000
     23 C18          4.2790   -34.6560    19.2060 ca         1 5N8      -0.093000
     24 C17          3.8230   -33.7620    20.1900 ca         1 5N8      -0.104900
     25 O1           7.7970   -30.4790    18.6320 o          1 5N8      -0.570100
     26 N4           9.5600   -30.3170    20.0550 n          1 5N8      -0.423800
     27 C4          10.0440   -28.0840    20.8670 cc         1 5N8       0.390800
     28 N2          10.1690   -26.7760    20.9090 nd         1 5N8      -0.347000
     29 N3          10.4100   -26.4300    22.2170 nd         1 5N8      -0.289000
     30 C5          10.4240   -27.5370    22.9130 cc         1 5N8       0.274800
     31 C6          10.6540   -27.6220    24.3880 c3         1 5N8       0.293700
     32 F3          10.7760   -26.4070    24.9290 f          1 5N8      -0.096667
     33 F2          11.7760   -28.3180    24.6800 f          1 5N8      -0.096667
     34 F1           9.6360   -28.2560    25.0120 f          1 5N8      -0.096667
     35 N1          10.2030   -28.6140    22.1080 na         1 5N8      -0.348000
     36 H1          12.4480   -31.3200    21.5700 hc         1 5N8       0.054033
     37 H2          12.0180   -31.4330    19.8550 hc         1 5N8       0.054033
     38 H3          12.2700   -29.8510    20.6080 hc         1 5N8       0.054033
     39 H4          10.0770   -31.8600    21.3450 h1         1 5N8       0.083700
     40 H5           9.0890   -30.2530    22.7650 h1         1 5N8       0.081200
     41 H6          10.8110   -30.2940    23.1960 h1         1 5N8       0.081200
     42 H7          10.6610   -28.8620    18.9920 h1         1 5N8       0.096700
     43 H8           8.9290   -28.5700    19.1250 h1         1 5N8       0.096700
     44 H9          10.0670   -33.1840    18.9140 ha         1 5N8       0.125000
     45 H10          9.5910   -35.5320    19.5270 ha         1 5N8       0.127000
     46 H11          7.5930   -36.0830    20.8700 ha         1 5N8       0.136000
     47 H12          6.4990   -31.9360    20.9230 ha         1 5N8       0.137000
     48 H13          3.9720   -35.4540    17.2520 ha         1 5N8       0.121000
     49 H14          1.9630   -34.0810    16.7940 ha         1 5N8       0.125000
     50 H15          1.1340   -32.4970    18.5190 ha         1 5N8       0.143000
     51 H16          2.6530   -31.3820    22.8110 hn         1 5N8       0.360500
     52 H17          5.1510   -35.2670    19.3810 ha         1 5N8       0.127000
     53 C8           8.5350   -30.9890    19.4740 c          1 5N8       0.617700
@<TRIPOS>BOND
     1     1     2 1   
     2     1    36 1   
     3     1    37 1   
     4     1    38 1   
     5     2     3 1   
     6     2    26 1   
     7     2    39 1   
     8     3    35 1   
     9     3    40 1   
    10     3    41 1   
    11     4    13 2   
    12     4    20 1   
    13     5    26 1   
    14     5    27 1   
    15     5    42 1   
    16     5    43 1   
    17     6     7 ar  
    18     6    11 ar  
    19     6    53 1   
    20     7     8 ar  
    21     7    44 1   
    22     8     9 ar  
    23     8    45 1   
    24     9    10 ar  
    25     9    46 1   
    26    10    11 ar  
    27    10    12 1   
    28    11    47 1   
    29    12    13 1   
    30    12    18 1   
    31    12    19 1   
    32    13    24 1   
    33    14    15 ar  
    34    14    23 ar  
    35    14    48 1   
    36    15    16 ar  
    37    15    49 1   
    38    16    17 ar  
    39    16    50 1   
    40    17    21 1   
    41    17    24 ar  
    42    20    21 1   
    43    20    51 1   
    44    21    22 2   
    45    23    24 ar  
    46    23    52 1   
    47    25    53 2   
    48    26    53 1   
    49    27    28 2   
    50    27    35 1   
    51    28    29 1   
    52    29    30 2   
    53    30    31 1   
    54    30    35 1   
    55    31    32 1   
    56    31    33 1   
    57    31    34 1   
@<TRIPOS>SUBSTRUCTURE
     1 5N8         1 TEMP              0 ****  ****    0 ROOT
