@<TRIPOS>MOLECULE
5N9
   47    49     1     0     0
SMALL
abcg2


@<TRIPOS>ATOM
      1 C13        -54.2610    -0.2840    -7.5700 c3         1 5N9       0.292100
      2 C15        -51.9580     5.2280   -10.1330 ca         1 5N9      -0.018000
      3 C17        -52.7630     7.2870   -11.1070 ca         1 5N9       0.189100
      4 C20        -55.0040     1.8910    -8.6320 ca         1 5N9       0.129900
      5 C22        -53.5170     3.4700    -9.2890 cp         1 5N9       0.212500
      6 C24        -52.7040     1.5700    -8.3550 ca         1 5N9       0.129900
      7 C28        -50.8630     8.3350   -13.3230 c3         1 5N9      -0.108600
      8 C02        -53.3610    -2.0200   -11.4070 ca         1 5N9       0.377900
      9 C03        -53.7220    -1.4600   -10.1950 ca         1 5N9      -0.226000
     10 C04        -52.9630    -1.7600    -9.0560 ca         1 5N9       0.367000
     11 C05        -51.8690    -2.6290    -9.2360 ca         1 5N9      -0.206000
     12 C06        -51.6180    -3.1180   -10.4960 ca         1 5N9       0.280300
     13 C07        -50.4740    -4.0590   -10.7610 c3         1 5N9       0.263700
     14 C12        -53.9850     1.0620    -8.1890 ca         1 5N9      -0.242300
     15 C14        -53.2570     4.7820    -9.9070 cp         1 5N9      -0.199500
     16 C16        -51.7110     6.4550   -10.7250 ca         1 5N9      -0.219000
     17 C18        -54.0680     6.8310   -10.8720 ca         1 5N9       0.054000
     18 C19        -54.3150     5.6080   -10.2870 ca         1 5N9      -0.020000
     19 C27        -51.3470     8.9940   -12.0430 c3         1 5N9       0.179300
     20 C29        -51.5130    10.4910   -12.2040 c3         1 5N9      -0.108600
     21 F08        -50.9130    -5.2200   -11.2600 f          1 5N9      -0.108000
     22 F09        -49.6200    -3.5500   -11.6570 f          1 5N9      -0.108000
     23 F10        -49.7680    -4.3440    -9.6630 f          1 5N9      -0.108000
     24 N01        -52.3300    -2.8350   -11.5830 nb         1 5N9      -0.665000
     25 N11        -53.2400    -1.2630    -7.8320 nu         1 5N9      -0.976200
     26 N21        -54.7820     3.0790    -9.1720 nb         1 5N9      -0.178500
     27 N23        -52.4680     2.7530    -8.8950 nb         1 5N9      -0.178500
     28 CL1        -55.3950     7.8420   -11.3310 cl         1 5N9      -0.185000
     29 H132       -54.3330    -0.1810    -6.4860 h1         1 5N9       0.061700
     30 H131       -55.2390    -0.6450    -7.9030 h1         1 5N9       0.061700
     31 H151       -51.1200     4.6070    -9.8490 ha         1 5N9       0.136000
     32 H201       -56.0410     1.5780    -8.5540 h4         1 5N9       0.025100
     33 H241       -51.8350     0.9970    -8.0460 h4         1 5N9       0.025100
     34 H282       -49.8770     8.7220   -13.5800 hc         1 5N9       0.049533
     35 H281       -50.7780     7.2530   -13.2320 hc         1 5N9       0.049533
     36 H283       -51.5390     8.5580   -14.1500 hc         1 5N9       0.049533
     37 H021       -53.9470    -1.7890   -12.2900 h4         1 5N9       0.025100
     38 H031       -54.5850    -0.8100   -10.1580 ha         1 5N9       0.129000
     39 H051       -51.2490    -2.8960    -8.3900 ha         1 5N9       0.135000
     40 H161       -50.6840     6.7530   -10.8820 ha         1 5N9       0.123000
     41 H191       -55.3350     5.2900   -10.1250 ha         1 5N9       0.149000
     42 H271       -50.6350     8.8070   -11.2320 h1         1 5N9       0.044700
     43 H293       -51.8500    10.9570   -11.2780 hc         1 5N9       0.049533
     44 H291       -50.5560    10.9370   -12.4730 hc         1 5N9       0.049533
     45 H292       -52.2270    10.7260   -12.9940 hc         1 5N9       0.049533
     46 H111       -52.6200    -1.5030    -7.0770 hn         1 5N9       0.498000
     47 O26        -52.6370     8.4890   -11.6670 os         1 5N9      -0.334100
@<TRIPOS>BOND
     1     1    14 1   
     2     1    25 1   
     3     1    29 1   
     4     1    30 1   
     5     2    15 ar  
     6     2    16 ar  
     7     2    31 1   
     8     3    16 ar  
     9     3    17 ar  
    10     3    47 1   
    11     4    14 ar  
    12     4    26 ar  
    13     4    32 1   
    14     5    15 1   
    15     5    26 ar  
    16     5    27 ar  
    17     6    14 ar  
    18     6    27 ar  
    19     6    33 1   
    20     7    19 1   
    21     7    34 1   
    22     7    35 1   
    23     7    36 1   
    24     8     9 ar  
    25     8    24 ar  
    26     8    37 1   
    27     9    10 ar  
    28     9    38 1   
    29    10    11 ar  
    30    10    25 1   
    31    11    12 ar  
    32    11    39 1   
    33    12    13 1   
    34    12    24 ar  
    35    13    21 1   
    36    13    22 1   
    37    13    23 1   
    38    15    18 ar  
    39    16    40 1   
    40    17    18 ar  
    41    17    28 1   
    42    18    41 1   
    43    19    20 1   
    44    19    42 1   
    45    19    47 1   
    46    20    43 1   
    47    20    44 1   
    48    20    45 1   
    49    25    46 1   
@<TRIPOS>SUBSTRUCTURE
     1 5N9         1 TEMP              0 ****  ****    0 ROOT
