@<TRIPOS>MOLECULE
5N9
   47    49     1     0     0
SMALL
No Charge or Current Charge


@<TRIPOS>ATOM
      1 C13        -54.0660    -0.3300    -7.0890 c3         1 5N9       0.292100
      2 C15        -52.0080     5.3890    -9.6440 ca         1 5N9      -0.018000
      3 C17        -52.6940     7.0310   -11.3200 ca         1 5N9       0.189100
      4 C20        -54.7300     1.4400    -8.7980 ca         1 5N9       0.129900
      5 C22        -53.3970     3.2970    -9.1570 cp         1 5N9       0.212500
      6 C24        -52.6970     1.7640    -7.5720 ca         1 5N9       0.129900
      7 C28        -50.2370     8.2020   -12.8490 c3         1 5N9      -0.108600
      8 C02        -54.3000    -2.3520   -11.0270 ca         1 5N9       0.377900
      9 C03        -54.3680    -1.9140    -9.7020 ca         1 5N9      -0.226000
     10 C04        -53.1860    -1.8020    -8.9690 ca         1 5N9       0.367000
     11 C05        -51.9800    -2.1400    -9.5840 ca         1 5N9      -0.206000
     12 C06        -51.9830    -2.5720   -10.9220 ca         1 5N9       0.280300
     13 C07        -50.6510    -2.9390   -11.6130 c3         1 5N9       0.263700
     14 C12        -53.8290     0.9720    -7.8260 ca         1 5N9      -0.242300
     15 C14        -53.1540     4.5870    -9.9010 cp         1 5N9      -0.199500
     16 C16        -51.7820     6.5900   -10.3380 ca         1 5N9      -0.219000
     17 C18        -53.8410     6.2560   -11.5840 ca         1 5N9       0.054000
     18 C19        -54.0650     5.0560   -10.8890 ca         1 5N9      -0.020000
     19 C27        -51.2920     8.9680   -12.0200 c3         1 5N9       0.179300
     20 C29        -51.6240    10.3420   -12.6320 c3         1 5N9      -0.108600
     21 F08        -50.8040    -3.3480   -12.8970 f          1 5N9      -0.108000
     22 F09        -49.8000    -1.8870   -11.6400 f          1 5N9      -0.108000
     23 F10        -50.0140    -3.9400   -10.9620 f          1 5N9      -0.108000
     24 N01        -53.1360    -2.6750   -11.6340 nb         1 5N9      -0.665000
     25 N11        -53.1900    -1.3680    -7.6460 nu         1 5N9      -0.976200
     26 N21        -54.5130     2.5950    -9.4580 nb         1 5N9      -0.178500
     27 N23        -52.4840     2.9180    -8.2340 nb         1 5N9      -0.178500
     28 Cl1        -55.0170     6.7730   -12.7960 cl         1 5N9      -0.185000
     29 H132       -53.8540    -0.1860    -6.0190 h1         1 5N9       0.061700
     30 H131       -55.1220    -0.6240    -7.1750 h1         1 5N9       0.061700
     31 H151       -51.2780     5.0840    -8.8960 ha         1 5N9       0.136000
     32 H201       -55.6330     0.8890    -9.0560 h4         1 5N9       0.025100
     33 H241       -51.9500     1.4740    -6.8350 h4         1 5N9       0.025100
     34 H282       -49.3130     8.7870   -12.9240 hc         1 5N9       0.049533
     35 H281       -49.9880     7.2400   -12.3870 hc         1 5N9       0.049533
     36 H283       -50.6050     8.0120   -13.8640 hc         1 5N9       0.049533
     37 H021       -55.2040    -2.4500   -11.6270 h4         1 5N9       0.025100
     38 H031       -55.3300    -1.6760    -9.2620 ha         1 5N9       0.129000
     39 H051       -51.0450    -2.0640    -9.0390 ha         1 5N9       0.135000
     40 H161       -50.8940     7.1640   -10.0930 ha         1 5N9       0.123000
     41 H191       -54.9620     4.4890   -11.1290 ha         1 5N9       0.149000
     42 H271       -50.9260     9.1320   -10.9980 h1         1 5N9       0.044700
     43 H293       -52.3820    10.8560   -12.0290 hc         1 5N9       0.049533
     44 H291       -50.7290    10.9740   -12.6640 hc         1 5N9       0.049533
     45 H292       -52.0070    10.2330   -13.6530 hc         1 5N9       0.049533
     46 H111       -52.2920    -1.4730    -7.1710 hn         1 5N9       0.498000
     47 O26        -52.5170     8.2110   -12.0230 os         1 5N9      -0.334100
@<TRIPOS>BOND
     1     1    14 1   
     2     1    25 1   
     3     1    29 1   
     4     1    30 1   
     5     2    15 ar  
     6     2    16 ar  
     7     2    31 1   
     8     3    16 ar  
     9     3    17 ar  
    10     3    47 1   
    11     4    14 ar  
    12     4    26 ar  
    13     4    32 1   
    14     5    15 1   
    15     5    26 ar  
    16     5    27 ar  
    17     6    14 ar  
    18     6    27 ar  
    19     6    33 1   
    20     7    19 1   
    21     7    34 1   
    22     7    35 1   
    23     7    36 1   
    24     8     9 ar  
    25     8    24 ar  
    26     8    37 1   
    27     9    10 ar  
    28     9    38 1   
    29    10    11 ar  
    30    10    25 1   
    31    11    12 ar  
    32    11    39 1   
    33    12    13 1   
    34    12    24 ar  
    35    13    21 1   
    36    13    22 1   
    37    13    23 1   
    38    15    18 ar  
    39    16    40 1   
    40    17    18 ar  
    41    17    28 1   
    42    18    41 1   
    43    19    20 1   
    44    19    42 1   
    45    19    47 1   
    46    20    43 1   
    47    20    44 1   
    48    20    45 1   
    49    25    46 1   
@<TRIPOS>SUBSTRUCTURE
     1 5N9         1 TEMP              0 ****  ****    0 ROOT
