@<TRIPOS>MOLECULE
5NA
   24    25     1     0     0
SMALL
No Charge or Current Charge


@<TRIPOS>ATOM
      1 C1A          1.8380    -2.2330    -0.0140 ca         1 5NA      -0.137000
      2 C1B          2.9020    -1.3280     0.0500 ca         1 5NA      -0.147000
      3 C1C          2.6630     0.0570     0.0480 ca         1 5NA      -0.069300
      4 C1D          1.3260     0.5380    -0.0130 ca         1 5NA      -0.102000
      5 C1E          0.2360    -0.3790    -0.0550 ca         1 5NA       0.055000
      6 C1F          0.5180    -1.7660    -0.0690 ca         1 5NA      -0.090000
      7 C1G          1.0640     1.9260    -0.0410 ca         1 5NA      -0.085000
      8 C1H         -0.2510     2.3960    -0.1290 ca         1 5NA      -0.175000
      9 C1I         -1.3190     1.4980    -0.1700 ca         1 5NA       0.225100
     10 C1J         -1.1020     0.1090    -0.1060 ca         1 5NA      -0.297600
     11 O1K         -2.5820     1.9850    -0.2890 oh         1 5NA      -0.664100
     12 C1L         -2.2990    -0.8020    -0.0730 c          1 5NA       0.728600
     13 O1M         -3.2400    -0.5060    -0.7970 o          1 5NA      -0.682000
     14 O1N         -2.3680    -1.6430     0.8080 o          1 5NA      -0.682000
     15 C1O          3.8650     0.9990     0.1050 c3         1 5NA      -0.036800
     16 H1A          2.0350    -3.3030    -0.0240 ha         1 5NA       0.090000
     17 H1B          3.9200    -1.7090     0.0940 ha         1 5NA       0.085000
     18 H1F         -0.2760    -2.5030    -0.1370 ha         1 5NA       0.158000
     19 H1G          1.8680     2.6560    -0.0120 ha         1 5NA       0.086000
     20 H1H         -0.4400     3.4660    -0.1720 ha         1 5NA       0.103000
     21 HO1K        -3.1300     1.1870    -0.5300 ho         1 5NA       0.556000
     22 H1O          3.9110     1.6360    -0.7870 hc         1 5NA       0.026700
     23 H1OA         3.8150     1.6500     0.9870 hc         1 5NA       0.026700
     24 H1OB         4.8120     0.4510     0.1610 hc         1 5NA       0.026700
@<TRIPOS>BOND
     1     1     2 ar  
     2     1     6 ar  
     3     1    16 1   
     4     2     3 ar  
     5     2    17 1   
     6     3     4 ar  
     7     3    15 1   
     8     4     5 ar  
     9     4     7 ar  
    10     5     6 ar  
    11     5    10 ar  
    12     6    18 1   
    13     7     8 ar  
    14     7    19 1   
    15     8     9 ar  
    16     8    20 1   
    17     9    10 ar  
    18     9    11 1   
    19    10    12 1   
    20    11    21 1   
    21    12    13 1   
    22    12    14 1   
    23    15    22 1   
    24    15    23 1   
    25    15    24 1   
@<TRIPOS>SUBSTRUCTURE
     1 5NA         1 TEMP              0 ****  ****    0 ROOT
