@<TRIPOS>MOLECULE
5NA
   24    25     1     0     0
SMALL
abcg2


@<TRIPOS>ATOM
      1 C1A          1.8480    -2.2140     0.0940 ca         1 5NA      -0.137000
      2 C1B          2.9170    -1.3040     0.1190 ca         1 5NA      -0.147000
      3 C1C          2.6780     0.0450     0.0570 ca         1 5NA      -0.069300
      4 C1D          1.3350     0.5090    -0.0290 ca         1 5NA      -0.102000
      5 C1E          0.2360    -0.4020    -0.0490 ca         1 5NA       0.055000
      6 C1F          0.5500    -1.7850     0.0140 ca         1 5NA      -0.090000
      7 C1G          1.0650     1.8990    -0.0970 ca         1 5NA      -0.085000
      8 C1H         -0.2040     2.3750    -0.1860 ca         1 5NA      -0.175000
      9 C1I         -1.3080     1.4850    -0.2110 ca         1 5NA       0.225100
     10 C1J         -1.1070     0.1010    -0.1360 ca         1 5NA      -0.297600
     11 O1K         -2.5100     2.0210    -0.3040 oh         1 5NA      -0.664100
     12 C1L         -2.3400    -0.7710    -0.1490 c          1 5NA       0.728600
     13 O1M         -3.4520    -0.1450    -0.2660 o          1 5NA      -0.682000
     14 O1N         -2.2790    -1.9980    -0.0490 o          1 5NA      -0.682000
     15 C1O          3.8290     1.0120     0.0800 c3         1 5NA      -0.036800
     16 H1A          2.0530    -3.2760     0.1390 ha         1 5NA       0.090000
     17 H1B          3.9340    -1.6710     0.1860 ha         1 5NA       0.085000
     18 H1F         -0.2480    -2.5060    -0.0020 ha         1 5NA       0.158000
     19 H1G          1.8820     2.6070    -0.0810 ha         1 5NA       0.086000
     20 H1H         -0.3930     3.4400    -0.2390 ha         1 5NA       0.103000
     21 HO1K        -3.1370     1.1610    -0.3100 ho         1 5NA       0.556000
     22 H1O          3.8690     1.6210    -0.8250 hc         1 5NA       0.026700
     23 H1OA         3.7710     1.6980     0.9260 hc         1 5NA       0.026700
     24 H1OB         4.7750     0.4780     0.1550 hc         1 5NA       0.026700
@<TRIPOS>BOND
     1     1     2 ar  
     2     1     6 ar  
     3     1    16 1   
     4     2     3 ar  
     5     2    17 1   
     6     3     4 ar  
     7     3    15 1   
     8     4     5 ar  
     9     4     7 ar  
    10     5     6 ar  
    11     5    10 ar  
    12     6    18 1   
    13     7     8 ar  
    14     7    19 1   
    15     8     9 ar  
    16     8    20 1   
    17     9    10 ar  
    18     9    11 1   
    19    10    12 1   
    20    11    21 1   
    21    12    13 1   
    22    12    14 1   
    23    15    22 1   
    24    15    23 1   
    25    15    24 1   
@<TRIPOS>SUBSTRUCTURE
     1 5NA         1 TEMP              0 ****  ****    0 ROOT
