@<TRIPOS>MOLECULE
5NB
   33    35     1     0     0
SMALL
No Charge or Current Charge


@<TRIPOS>ATOM
      1 O2          -1.4070     2.9130    -1.4590 oh         1 5NB      -0.703000
      2 C2          -1.2670     1.4970    -1.2980 c5         1 5NB       0.102300
      3 C3          -2.6960     0.9100    -1.0550 c5         1 5NB       0.087300
      4 O3          -3.6980     1.7290    -1.6970 oh         1 5NB      -0.711000
      5 C4          -2.7610     0.9250     0.5020 c5         1 5NB       0.169300
      6 C5          -3.8930     0.0490     1.1220 c3         1 5NB       0.156800
      7 N5          -3.9320     0.0810     2.6100 n8         1 5NB      -0.978200
      8 O4          -1.4600     0.4190     0.8620 os         1 5NB      -0.421000
      9 C1          -0.5050     1.1040     0.0270 c5         1 5NB       0.292300
     10 N9           0.7250     0.3100    -0.0740 na         1 5NB      -0.268300
     11 C8           0.9130    -0.8880    -0.7830 cc         1 5NB       0.364800
     12 Br8         -0.4600    -1.8760    -1.6280 br         1 5NB       0.012700
     13 N7           2.1950    -1.2910    -0.7460 nd         1 5NB      -0.517100
     14 C10          2.8210    -0.3010     0.0140 ca         1 5NB      -0.105600
     15 C9           1.9450     0.6710     0.4280 ca         1 5NB       0.152500
     16 N3           2.3400     1.7240     1.1700 nb         1 5NB      -0.216000
     17 C7           3.6580     1.7620     1.4820 ca         1 5NB       0.191900
     18 N1           4.6020     0.8560     1.1250 nb         1 5NB      -0.302000
     19 C6           4.1740    -0.1810     0.3890 ca         1 5NB       0.455900
     20 N6           5.1190    -1.0890     0.0280 nv         1 5NB      -1.058900
     21 H1          -2.3740     2.9900    -1.6820 ho         1 5NB       0.525000
     22 H2          -0.7990     1.0520    -2.1870 h1         1 5NB       0.073700
     23 H3          -2.7530    -0.1230    -1.4260 h1         1 5NB       0.059700
     24 H4          -4.4980     1.1680    -1.8440 ho         1 5NB       0.519000
     25 H5          -2.8590     1.9530     0.8790 h1         1 5NB       0.065700
     26 H6          -4.8630     0.4020     0.7430 h1         1 5NB       0.039700
     27 H7          -3.7600    -0.9920     0.7950 h1         1 5NB       0.039700
     28 H8          -4.1430     1.0360     2.9240 hn         1 5NB       0.395500
     29 H9          -4.7390    -0.4640     2.9380 hn         1 5NB       0.395500
     30 H11         -0.2100     2.0340     0.5290 h2         1 5NB       0.117700
     31 H12          3.9930     2.6070     2.0810 h5         1 5NB       0.049100
     32 H13          6.0940    -0.8040     0.0720 hn         1 5NB       0.508000
     33 H14          4.8700    -1.7510    -0.7030 hn         1 5NB       0.508000
@<TRIPOS>BOND
     1     1     2 1   
     2     1    21 1   
     3     2     3 1   
     4     2     9 1   
     5     2    22 1   
     6     3     4 1   
     7     3     5 1   
     8     3    23 1   
     9     4    24 1   
    10     5     6 1   
    11     5     8 1   
    12     5    25 1   
    13     6     7 1   
    14     6    26 1   
    15     6    27 1   
    16     7    28 1   
    17     7    29 1   
    18     8     9 1   
    19     9    10 1   
    20     9    30 1   
    21    10    11 1   
    22    10    15 1   
    23    11    12 1   
    24    11    13 2   
    25    13    14 1   
    26    14    15 ar  
    27    14    19 ar  
    28    15    16 ar  
    29    16    17 ar  
    30    17    18 ar  
    31    17    31 1   
    32    18    19 ar  
    33    19    20 1   
    34    20    32 1   
    35    20    33 1   
@<TRIPOS>SUBSTRUCTURE
     1 5NB         1 TEMP              0 ****  ****    0 ROOT
