@<TRIPOS>MOLECULE
5NB
   33    35     1     0     0
SMALL
bcc


@<TRIPOS>ATOM
      1 O2          -1.1860     2.8810    -1.4250 oh         1 5NB      -0.580800
      2 C2          -1.2650     1.5000    -1.2160 c5         1 5NB       0.079100
      3 C3          -2.7200     1.0480    -0.9460 c5         1 5NB       0.064100
      4 O3          -3.6650     1.9930    -1.3720 oh         1 5NB      -0.588800
      5 C4          -2.7650     0.8950     0.5730 c5         1 5NB       0.146100
      6 C5          -3.8000    -0.0920     1.0600 c3         1 5NB       0.156800
      7 N5          -3.8390    -0.1530     2.5110 n8         1 5NB      -0.867800
      8 O4          -1.4610     0.4590     0.9170 os         1 5NB      -0.374600
      9 C1          -0.5460     1.1340     0.1030 c5         1 5NB       0.239800
     10 N9           0.6390     0.3200    -0.0310 na         1 5NB      -0.239000
     11 C8           0.7930    -0.9600    -0.5010 cc         1 5NB       0.364800
     12 BR8         -0.6220    -1.9890    -1.1060 br         1 5NB       0.012700
     13 N7           2.0100    -1.3930    -0.4780 nd         1 5NB      -0.517100
     14 C10          2.7280    -0.3460     0.0380 ca         1 5NB      -0.236200
     15 C9           1.9000     0.7230     0.3270 ca         1 5NB       0.480800
     16 N3           2.2680     1.8900     0.8430 nb         1 5NB      -0.742000
     17 C7           3.5710     1.9370     1.0670 ca         1 5NB       0.717900
     18 N1           4.4820     0.9970     0.8370 nb         1 5NB      -0.828000
     19 C6           4.0980    -0.1730     0.3150 ca         1 5NB       0.784200
     20 N6           5.0050    -1.1210     0.0880 nv         1 5NB      -0.948500
     21 H1          -2.0860     3.1880    -1.6050 ho         1 5NB       0.426000
     22 H2          -0.8320     0.9640    -2.0680 h1         1 5NB       0.073700
     23 H3          -2.8970     0.0750    -1.4160 h1         1 5NB       0.059700
     24 H4          -3.9510     1.7730    -2.2640 ho         1 5NB       0.420000
     25 H5          -2.9620     1.8840     1.0180 h1         1 5NB       0.065700
     26 H6          -4.7560     0.1930     0.5990 h1         1 5NB       0.039700
     27 H7          -3.5510    -1.0830     0.6720 h1         1 5NB       0.039700
     28 H8          -4.1860     0.7250     2.8760 hn         1 5NB       0.340300
     29 H9          -4.5150    -0.8510     2.7940 hn         1 5NB       0.340300
     30 H11         -0.2010     2.0640     0.5690 h2         1 5NB       0.117700
     31 H12          3.9490     2.8600     1.4920 h5         1 5NB       0.049100
     32 H13          5.9810    -0.9320     0.2410 hn         1 5NB       0.452800
     33 H14          4.7560    -1.9770    -0.3760 hn         1 5NB       0.452800
@<TRIPOS>BOND
     1     1     2 1   
     2     1    21 1   
     3     2     3 1   
     4     2     9 1   
     5     2    22 1   
     6     3     4 1   
     7     3     5 1   
     8     3    23 1   
     9     4    24 1   
    10     5     6 1   
    11     5     8 1   
    12     5    25 1   
    13     6     7 1   
    14     6    26 1   
    15     6    27 1   
    16     7    28 1   
    17     7    29 1   
    18     8     9 1   
    19     9    10 1   
    20     9    30 1   
    21    10    11 1   
    22    10    15 1   
    23    11    12 1   
    24    11    13 2   
    25    13    14 1   
    26    14    15 ar  
    27    14    19 ar  
    28    15    16 ar  
    29    16    17 ar  
    30    17    18 ar  
    31    17    31 1   
    32    18    19 ar  
    33    19    20 1   
    34    20    32 1   
    35    20    33 1   
@<TRIPOS>SUBSTRUCTURE
     1 5NB         1 TEMP              0 ****  ****    0 ROOT
