@<TRIPOS>MOLECULE
5ND
   30    32     1     0     0
SMALL
abcg2


@<TRIPOS>ATOM
      1 N10          2.0150     0.7150    -0.6830 ns         1 5ND      -0.519900
      2 CA           2.1180    -0.6520    -0.2420 c5         1 5ND       0.021700
      3 CB           1.1770    -0.9960     0.9160 c3         1 5ND      -0.030100
      4 CG          -0.2620    -0.8570     0.5120 ca         1 5ND      -0.092300
      5 CD1         -0.8620    -1.8480    -0.3030 ca         1 5ND      -0.109000
      6 CE1         -2.1620    -1.7360    -0.7070 ca         1 5ND      -0.093000
      7 CZ          -2.9450    -0.6210    -0.3230 ca         1 5ND      -0.035000
      8 CE2         -2.3530     0.3800     0.4890 ca         1 5ND      -0.037000
      9 CD2         -1.0030     0.2330     0.8870 ca         1 5ND      -0.088000
     10 C            3.5760    -0.7310     0.1840 c          1 5ND       0.561000
     11 N11          4.1080     0.4940    -0.0690 ns         1 5ND      -0.485500
     12 C2           3.1830     1.3840    -0.6160 c          1 5ND       0.615000
     13 O2           3.4230     2.5230    -0.9490 o          1 5ND      -0.543000
     14 O3           4.1350    -1.6860     0.6660 o          1 5ND      -0.503000
     15 C1          -3.1310     1.4950     0.8800 ca         1 5ND      -0.097000
     16 C3          -4.4360     1.6080     0.4830 ca         1 5ND      -0.105000
     17 C5          -5.0240     0.6120    -0.3250 ca         1 5ND      -0.103000
     18 C6          -4.2950    -0.4770    -0.7190 ca         1 5ND      -0.099000
     19 H10          1.2130     1.0890    -1.1620 hn         1 5ND       0.355500
     20 HA           1.9580    -1.3510    -1.0700 h1         1 5ND       0.084700
     21 HB1C         1.3870    -2.0220     1.2270 hc         1 5ND       0.070200
     22 HB2C         1.3990    -0.3440     1.7640 hc         1 5ND       0.070200
     23 HD1         -0.2790    -2.7110    -0.6040 ha         1 5ND       0.113000
     24 HD2         -0.5570     1.0020     1.5100 ha         1 5ND       0.117000
     25 HE1         -2.6090    -2.5060    -1.3230 ha         1 5ND       0.116000
     26 H6          -4.7460    -1.2430    -1.3380 ha         1 5ND       0.115000
     27 H1          -2.6780     2.2600     1.4990 ha         1 5ND       0.115000
     28 H11          5.0650     0.7530     0.1280 hn         1 5ND       0.356500
     29 H3          -5.0240     2.4630     0.7910 ha         1 5ND       0.115000
     30 H5          -6.0570     0.7150    -0.6320 ha         1 5ND       0.115000
@<TRIPOS>BOND
     1     1     2 1   
     2     1    12 1   
     3     1    19 1   
     4     2     3 1   
     5     2    10 1   
     6     2    20 1   
     7     3     4 1   
     8     3    21 1   
     9     3    22 1   
    10     4     5 ar  
    11     4     9 ar  
    12     5     6 ar  
    13     5    23 1   
    14     6     7 ar  
    15     6    25 1   
    16     7     8 ar  
    17     7    18 ar  
    18     8     9 ar  
    19     8    15 ar  
    20     9    24 1   
    21    10    11 1   
    22    10    14 2   
    23    11    12 1   
    24    11    28 1   
    25    12    13 2   
    26    15    16 ar  
    27    15    27 1   
    28    16    17 ar  
    29    16    29 1   
    30    17    18 ar  
    31    17    30 1   
    32    18    26 1   
@<TRIPOS>SUBSTRUCTURE
     1 5ND         1 TEMP              0 ****  ****    0 ROOT
