@<TRIPOS>MOLECULE
5ND
   30    32     1     0     0
SMALL
No Charge or Current Charge


@<TRIPOS>ATOM
      1 N10          2.0570     0.6940    -0.7640 ns         1 5ND      -0.519900
      2 CA           2.1720    -0.7020    -0.2710 c5         1 5ND       0.021700
      3 CB           1.1870    -1.0260     0.8760 c3         1 5ND      -0.030100
      4 CG          -0.2750    -0.8840     0.4670 ca         1 5ND      -0.092300
      5 CD1         -0.8870    -1.8800    -0.3190 ca         1 5ND      -0.109000
      6 CE1         -2.2320    -1.7520    -0.7060 ca         1 5ND      -0.093000
      7 CZ          -2.9770    -0.6260    -0.3110 ca         1 5ND      -0.035000
      8 CE2         -2.3680     0.3760     0.4760 ca         1 5ND      -0.037000
      9 CD2         -1.0210     0.2440     0.8610 ca         1 5ND      -0.088000
     10 C            3.6560    -0.7300     0.2120 c          1 5ND       0.561000
     11 N11          4.0790     0.5280    -0.0400 ns         1 5ND      -0.485500
     12 C2           3.2140     1.3870    -0.5890 c          1 5ND       0.615000
     13 O2           3.4210     2.5490    -0.8780 o          1 5ND      -0.543000
     14 O3           4.3230    -1.6210     0.7140 o          1 5ND      -0.503000
     15 C1          -3.1120     1.5050     0.8700 ca         1 5ND      -0.097000
     16 C3          -4.4570     1.6330     0.4820 ca         1 5ND      -0.105000
     17 C5          -5.0630     0.6350    -0.3000 ca         1 5ND      -0.103000
     18 C6          -4.3240    -0.4930    -0.6970 ca         1 5ND      -0.099000
     19 H10          1.2430     1.1500    -1.1600 hn         1 5ND       0.355500
     20 HA           2.0600    -1.4330    -1.0830 h1         1 5ND       0.084700
     21 HB1C         1.3680    -2.0480     1.2330 hc         1 5ND       0.070200
     22 HB2C         1.3980    -0.3750     1.7340 hc         1 5ND       0.070200
     23 HD1         -0.3200    -2.7540    -0.6310 ha         1 5ND       0.113000
     24 HD2         -0.5530     1.0180     1.4650 ha         1 5ND       0.117000
     25 HE1         -2.6920    -2.5290    -1.3130 ha         1 5ND       0.116000
     26 H6          -4.8000    -1.2610    -1.3030 ha         1 5ND       0.115000
     27 H1          -2.6510     2.2820     1.4760 ha         1 5ND       0.115000
     28 H11          5.0200     0.8140     0.1810 hn         1 5ND       0.356500
     29 H3          -5.0300     2.5060     0.7890 ha         1 5ND       0.115000
     30 H5          -6.1040     0.7360    -0.6000 ha         1 5ND       0.115000
@<TRIPOS>BOND
     1     1     2 1   
     2     1    12 1   
     3     1    19 1   
     4     2     3 1   
     5     2    10 1   
     6     2    20 1   
     7     3     4 1   
     8     3    21 1   
     9     3    22 1   
    10     4     5 ar  
    11     4     9 ar  
    12     5     6 ar  
    13     5    23 1   
    14     6     7 ar  
    15     6    25 1   
    16     7     8 ar  
    17     7    18 ar  
    18     8     9 ar  
    19     8    15 ar  
    20     9    24 1   
    21    10    11 1   
    22    10    14 2   
    23    11    12 1   
    24    11    28 1   
    25    12    13 2   
    26    15    16 ar  
    27    15    27 1   
    28    16    17 ar  
    29    16    29 1   
    30    17    18 ar  
    31    17    30 1   
    32    18    26 1   
@<TRIPOS>SUBSTRUCTURE
     1 5ND         1 TEMP              0 ****  ****    0 ROOT
