@<TRIPOS>MOLECULE
5NE
   23    24     1     0     0
SMALL
No Charge or Current Charge


@<TRIPOS>ATOM
      1 O1N          2.8090    -1.1190     1.0030 o          1 5NE      -0.716000
      2 C1L          2.5530    -0.4340     0.0220 c          1 5NE       0.711600
      3 O1M          3.3150    -0.2990    -0.9250 o          1 5NE      -0.716000
      4 C1J          1.2620     0.3500     0.0100 ca         1 5NE      -0.097600
      5 C1E         -0.0110    -0.2840     0.0020 ca         1 5NE      -0.017000
      6 C1F         -0.1210    -1.6930    -0.0240 ca         1 5NE      -0.045000
      7 C1A         -1.3800    -2.3100    -0.0340 ca         1 5NE      -0.162000
      8 C1I          1.3350     1.7580     0.0080 ca         1 5NE      -0.122000
      9 C1H          0.1690     2.5330     0.0100 ca         1 5NE      -0.108000
     10 C1G         -1.0870     1.9130     0.0130 ca         1 5NE      -0.151000
     11 C1D         -1.1960     0.5040     0.0050 ca         1 5NE      -0.036000
     12 C1C         -2.4690    -0.1290    -0.0020 ca         1 5NE      -0.097300
     13 C1O         -3.7730     0.6680     0.0060 c3         1 5NE      -0.033800
     14 C1B         -2.5450    -1.5340    -0.0200 ca         1 5NE      -0.115000
     15 H2           0.7620    -2.3260    -0.0410 ha         1 5NE       0.153000
     16 H3          -1.4510    -3.3950    -0.0520 ha         1 5NE       0.094000
     17 H4           2.3060     2.2490     0.0100 ha         1 5NE       0.122000
     18 H5           0.2390     3.6180     0.0120 ha         1 5NE       0.085000
     19 H6          -1.9690     2.5470     0.0150 ha         1 5NE       0.086000
     20 H7          -3.8470     1.3130    -0.8780 hc         1 5NE       0.026700
     21 H8          -4.6530     0.0140     0.0040 hc         1 5NE       0.026700
     22 H9          -3.8420     1.3020     0.8980 hc         1 5NE       0.026700
     23 H10         -3.5130    -2.0310    -0.0270 ha         1 5NE       0.085000
@<TRIPOS>BOND
     1     1     2 1   
     2     2     3 1   
     3     2     4 1   
     4     4     5 ar  
     5     4     8 ar  
     6     5     6 ar  
     7     5    11 ar  
     8     6     7 ar  
     9     6    15 1   
    10     7    14 ar  
    11     7    16 1   
    12     8     9 ar  
    13     8    17 1   
    14     9    10 ar  
    15     9    18 1   
    16    10    11 ar  
    17    10    19 1   
    18    11    12 ar  
    19    12    13 1   
    20    12    14 ar  
    21    13    20 1   
    22    13    21 1   
    23    13    22 1   
    24    14    23 1   
@<TRIPOS>SUBSTRUCTURE
     1 5NE         1 TEMP              0 ****  ****    0 ROOT
