@<TRIPOS>MOLECULE
5NE
   23    24     1     0     0
SMALL
bcc


@<TRIPOS>ATOM
      1 O1N          2.6790    -1.3690     0.8080 o          1 5NE      -0.821300
      2 C1L          2.5890    -0.4040     0.0240 c          1 5NE       0.922200
      3 O1M          3.4840     0.0410    -0.7180 o          1 5NE      -0.821300
      4 C1J          1.2600     0.3480    -0.0050 ca         1 5NE      -0.097600
      5 C1E         -0.0120    -0.3000     0.0260 ca         1 5NE      -0.017000
      6 C1F         -0.1460    -1.7130     0.0080 ca         1 5NE      -0.063000
      7 C1A         -1.3800    -2.2970    -0.0140 ca         1 5NE      -0.180000
      8 C1I          1.3080     1.7210    -0.0460 ca         1 5NE      -0.140000
      9 C1H          0.1400     2.5000    -0.0100 ca         1 5NE      -0.126000
     10 C1G         -1.0880     1.8990     0.0210 ca         1 5NE      -0.169000
     11 C1D         -1.2010     0.4880     0.0210 ca         1 5NE      -0.036000
     12 C1C         -2.4820    -0.1430     0.0080 ca         1 5NE      -0.097300
     13 C1O         -3.7410     0.6750     0.0050 c3         1 5NE      -0.033800
     14 C1B         -2.5490    -1.5110    -0.0100 ca         1 5NE      -0.133000
     15 H2           0.7390    -2.3300     0.0150 ha         1 5NE       0.171000
     16 H3          -1.4660    -3.3760    -0.0330 ha         1 5NE       0.112000
     17 H4           2.2680     2.2180    -0.0940 ha         1 5NE       0.140000
     18 H5           0.2150     3.5800    -0.0150 ha         1 5NE       0.103000
     19 H6          -1.9780     2.5130     0.0390 ha         1 5NE       0.104000
     20 H7          -3.8010     1.3250    -0.8700 hc         1 5NE       0.026700
     21 H8          -4.6190     0.0320    -0.0040 hc         1 5NE       0.026700
     22 H9          -3.8110     1.3180     0.8840 hc         1 5NE       0.026700
     23 H10         -3.5160    -2.0000    -0.0250 ha         1 5NE       0.103000
@<TRIPOS>BOND
     1     1     2 1   
     2     2     3 1   
     3     2     4 1   
     4     4     5 ar  
     5     4     8 ar  
     6     5     6 ar  
     7     5    11 ar  
     8     6     7 ar  
     9     6    15 1   
    10     7    14 ar  
    11     7    16 1   
    12     8     9 ar  
    13     8    17 1   
    14     9    10 ar  
    15     9    18 1   
    16    10    11 ar  
    17    10    19 1   
    18    11    12 ar  
    19    12    13 1   
    20    12    14 ar  
    21    13    20 1   
    22    13    21 1   
    23    13    22 1   
    24    14    23 1   
@<TRIPOS>SUBSTRUCTURE
     1 5NE         1 TEMP              0 ****  ****    0 ROOT
