@<TRIPOS>MOLECULE
5NF
   39    40     1     0     0
SMALL
No Charge or Current Charge


@<TRIPOS>ATOM
      1 C1          39.1100    40.3440    69.7290 c5         1 5NF       0.160600
      2 C2          40.4340    41.1730    69.7650 c5         1 5NF       0.152000
      3 C3          40.0150    42.4480    70.5980 c5         1 5NF       0.111300
      4 C4          38.6150    42.0220    71.2300 c5         1 5NF       0.240400
      5 C5          37.4350    42.8330    70.5140 c          1 5NF       0.559000
      6 C6          37.5780    42.3350    73.4430 c          1 5NF       0.570000
      7 C10         35.3810    40.5290    72.1090 c3         1 5NF      -0.077400
      8 C11         34.2920    39.4510    72.2960 c3         1 5NF      -0.086100
      9 C12         41.0140    41.4930    68.3690 c3         1 5NF      -0.106100
     10 C7          36.2950    42.8950    72.7730 c6         1 5NF       0.040700
     11 C8          35.1050    41.8750    72.8430 c3         1 5NF      -0.070700
     12 C9          33.7750    42.5260    72.3820 c3         1 5NF      -0.091100
     13 N1          38.7220    42.2570    72.6850 ns         1 5NF      -0.490900
     14 N2          36.5330    43.3790    71.3980 ns         1 5NF      -0.487900
     15 O1          41.4560    40.5010    70.4970 oh         1 5NF      -0.713000
     16 O2          41.0710    42.7720    71.5480 oh         1 5NF      -0.717000
     17 O3          38.5110    40.6020    71.0130 os         1 5NF      -0.450000
     18 O4          37.3320    43.0650    69.3170 o          1 5NF      -0.566000
     19 O5          37.6250    42.0800    74.6370 o          1 5NF      -0.548000
     20 H1          38.4330    40.6770    68.9300 h1         1 5NF       0.073700
     21 H2          39.2880    39.2670    69.6050 h1         1 5NF       0.073700
     22 H3          39.8640    43.2990    69.9160 h1         1 5NF       0.081700
     23 H5          35.5140    40.7110    71.0350 hc         1 5NF       0.051700
     24 H6          34.6160    38.5040    71.8480 hc         1 5NF       0.033367
     25 H7          34.0970    39.2750    73.3610 hc         1 5NF       0.033367
     26 H8          33.3530    39.7440    71.8120 hc         1 5NF       0.033367
     27 H9          41.9150    42.1140    68.4440 hc         1 5NF       0.052033
     28 H10         41.2820    40.5760    67.8310 hc         1 5NF       0.052033
     29 H11         40.2870    42.0380    67.7540 hc         1 5NF       0.052033
     30 H12         36.0240    43.7720    73.3790 h1         1 5NF       0.079700
     31 H13         34.9660    41.6260    73.9040 hc         1 5NF       0.073700
     32 H14         33.6300    43.4970    72.8710 hc         1 5NF       0.038033
     33 H15         33.7690    42.6850    71.2960 hc         1 5NF       0.038033
     34 H16         32.9150    41.8990    72.6410 hc         1 5NF       0.038033
     35 H17         39.5610    42.0000    73.1880 hn         1 5NF       0.341500
     36 H18         35.8280    43.9750    70.9790 hn         1 5NF       0.327500
     37 H19         41.6610    41.1930    71.1850 ho         1 5NF       0.521000
     38 H20         40.9140    43.6960    71.8620 ho         1 5NF       0.525000
     39 H4          36.3240    40.1080    72.4760 hc         1 5NF       0.051700
@<TRIPOS>BOND
     1     1     2 1   
     2     1    17 1   
     3     1    20 1   
     4     1    21 1   
     5     2     3 1   
     6     2     9 1   
     7     2    15 1   
     8     3     4 1   
     9     3    16 1   
    10     3    22 1   
    11     4     5 1   
    12     4    13 1   
    13     4    17 1   
    14     5    14 1   
    15     5    18 2   
    16     6    10 1   
    17     6    13 1   
    18     6    19 2   
    19     7     8 1   
    20     7    11 1   
    21     7    23 1   
    22     7    39 1   
    23     8    24 1   
    24     8    25 1   
    25     8    26 1   
    26     9    27 1   
    27     9    28 1   
    28     9    29 1   
    29    10    11 1   
    30    10    14 1   
    31    10    30 1   
    32    11    12 1   
    33    11    31 1   
    34    12    32 1   
    35    12    33 1   
    36    12    34 1   
    37    13    35 1   
    38    14    36 1   
    39    15    37 1   
    40    16    38 1   
@<TRIPOS>SUBSTRUCTURE
     1 5NF         1 TEMP              0 ****  ****    0 ROOT
