@<TRIPOS>MOLECULE
5NF
   39    40     1     0     0
SMALL
abcg2


@<TRIPOS>ATOM
      1 C1          39.1970    40.4890    69.3990 c5         1 5NF       0.160600
      2 C2          40.4710    41.2100    69.7940 c5         1 5NF       0.152000
      3 C3          39.8980    42.5080    70.3880 c5         1 5NF       0.111300
      4 C4          38.5190    42.0700    70.9920 c5         1 5NF       0.240400
      5 C5          37.3790    42.9730    70.4960 c          1 5NF       0.559000
      6 C6          37.5730    42.2310    73.2880 c          1 5NF       0.570000
      7 C10         35.3020    40.5070    72.2170 c3         1 5NF      -0.077400
      8 C11         34.2030    39.4810    72.4870 c3         1 5NF      -0.086100
      9 C12         41.4410    41.4380    68.6480 c3         1 5NF      -0.106100
     10 C7          36.2830    42.8100    72.7440 c6         1 5NF       0.040700
     11 C8          35.0970    41.8350    72.9510 c3         1 5NF      -0.070700
     12 C9          33.7790    42.5220    72.5870 c3         1 5NF      -0.091100
     13 N1          38.5770    42.0010    72.4180 ns         1 5NF      -0.490900
     14 N2          36.4100    43.2670    71.3690 ns         1 5NF      -0.487900
     15 O1          41.0810    40.4470    70.8410 oh         1 5NF      -0.713000
     16 O2          40.8010    43.0420    71.3290 oh         1 5NF      -0.717000
     17 O3          38.2590    40.7640    70.4500 os         1 5NF      -0.450000
     18 O4          37.3750    43.3640    69.3310 o          1 5NF      -0.566000
     19 O5          37.6850    42.0050    74.4880 o          1 5NF      -0.548000
     20 H1          38.8190    40.8700    68.4460 h1         1 5NF       0.073700
     21 H2          39.3260    39.4090    69.3380 h1         1 5NF       0.073700
     22 H3          39.7010    43.2190    69.5870 h1         1 5NF       0.081700
     23 H5          35.3680    40.6960    71.1420 hc         1 5NF       0.051700
     24 H6          34.4520    38.5230    72.0270 hc         1 5NF       0.033367
     25 H7          34.0820    39.3140    73.5610 hc         1 5NF       0.033367
     26 H8          33.2390    39.8000    72.0880 hc         1 5NF       0.033367
     27 H9          42.3020    42.0100    68.9970 hc         1 5NF       0.052033
     28 H10         41.7910    40.4800    68.2620 hc         1 5NF       0.052033
     29 H11         40.9620    41.9900    67.8380 hc         1 5NF       0.052033
     30 H12         36.0860    43.6870    73.3650 h1         1 5NF       0.079700
     31 H13         35.0890    41.6350    74.0260 hc         1 5NF       0.073700
     32 H14         33.7110    43.5080    73.0530 hc         1 5NF       0.038033
     33 H15         33.6770    42.6420    71.5050 hc         1 5NF       0.038033
     34 H16         32.9300    41.9340    72.9330 hc         1 5NF       0.038033
     35 H17         39.4360    41.6410    72.8140 hn         1 5NF       0.341500
     36 H18         35.6510    43.8270    71.0030 hn         1 5NF       0.327500
     37 H19         41.7060    41.0260    71.2990 ho         1 5NF       0.521000
     38 H20         40.6210    43.9820    71.4490 ho         1 5NF       0.525000
     39 H4          36.2620    40.0790    72.5150 hc         1 5NF       0.051700
@<TRIPOS>BOND
     1     1     2 1   
     2     1    17 1   
     3     1    20 1   
     4     1    21 1   
     5     2     3 1   
     6     2     9 1   
     7     2    15 1   
     8     3     4 1   
     9     3    16 1   
    10     3    22 1   
    11     4     5 1   
    12     4    13 1   
    13     4    17 1   
    14     5    14 1   
    15     5    18 2   
    16     6    10 1   
    17     6    13 1   
    18     6    19 2   
    19     7     8 1   
    20     7    11 1   
    21     7    23 1   
    22     7    39 1   
    23     8    24 1   
    24     8    25 1   
    25     8    26 1   
    26     9    27 1   
    27     9    28 1   
    28     9    29 1   
    29    10    11 1   
    30    10    14 1   
    31    10    30 1   
    32    11    12 1   
    33    11    31 1   
    34    12    32 1   
    35    12    33 1   
    36    12    34 1   
    37    13    35 1   
    38    14    36 1   
    39    15    37 1   
    40    16    38 1   
@<TRIPOS>SUBSTRUCTURE
     1 5NF         1 TEMP              0 ****  ****    0 ROOT
