@<TRIPOS>MOLECULE
5NH
  111   114     1     0     0
SMALL
No Charge or Current Charge


@<TRIPOS>ATOM
      1 C1           0.8780    -1.8680     0.1490 c          1 5NH       0.658100
      2 O2           0.7090    -1.2510     1.1880 o          1 5NH      -0.557000
      3 O3          -0.0290    -2.6490    -0.5110 os         1 5NH      -0.473100
      4 C4          -1.3560    -2.9060     0.0020 c3         1 5NH       0.226000
      5 C5          -2.1560    -1.5820     0.0730 c3         1 5NH      -0.110433
      6 C6          -1.9880    -3.8510    -1.0430 c3         1 5NH      -0.110433
      7 C7          -1.2540    -3.6270     1.3710 c3         1 5NH      -0.110433
      8 N8           2.0590    -1.9360    -0.5300 ns         1 5NH      -0.492900
      9 C9           3.3450    -1.3650    -0.0730 c3         1 5NH       0.050700
     10 C10          4.2320    -2.4440     0.6430 c6         1 5NH      -0.072700
     11 C11          3.6470    -2.8670     2.0210 c6         1 5NH      -0.074900
     12 C12          4.5740    -3.8760     2.7410 c6         1 5NH      -0.073400
     13 C13          4.8450    -5.1180     1.8570 c6         1 5NH      -0.076400
     14 C14          5.4250    -4.7080     0.4810 c6         1 5NH      -0.073400
     15 C15          4.4980    -3.6990    -0.2410 c6         1 5NH      -0.074900
     16 C16          4.0730    -0.6560    -1.2600 c          1 5NH       0.598100
     17 O17          3.8400    -0.9660    -2.4240 o          1 5NH      -0.590100
     18 C18          4.3630     1.7650     1.1310 c          1 5NH       0.595100
     19 O19          4.4020     2.0930     2.3080 o          1 5NH      -0.596100
     20 N20          5.0200     0.3620    -0.9820 n          1 5NH      -0.423800
     21 C21          5.4010     0.8700     0.3770 c5         1 5NH       0.016700
     22 C22          6.6430     1.7460    -0.0180 c5         1 5NH      -0.073700
     23 C23          7.7700     0.7470    -0.4550 c5         1 5NH      -0.082400
     24 C24          7.2500     0.2060    -1.8350 c5         1 5NH      -0.103400
     25 C25          5.8920     0.9540    -2.0190 c5         1 5NH       0.100700
     26 C26          6.2250     2.3250    -1.3900 c5         1 5NH      -0.101400
     27 N27          3.3080     2.0740     0.2980 ns         1 5NH      -0.489900
     28 C28          2.1000     2.8300     0.6900 c3         1 5NH       0.025700
     29 C29          2.2140     4.3350     0.3340 c3         1 5NH      -0.084400
     30 C30          3.4040     5.0640     1.0020 c3         1 5NH      -0.072400
     31 C31          3.4440     6.5740     0.6790 c3         1 5NH      -0.076400
     32 C32          4.6350     7.2980     1.3350 c3         1 5NH      -0.088100
     33 C34          0.8470     2.1870     0.0360 c          1 5NH       0.496100
     34 O35         -0.6340     2.8700     1.9190 o          1 5NH      -0.583100
     35 N36         -1.6570     2.0000     0.0720 ns         1 5NH      -0.476900
     36 C37         -3.0430     2.0300     0.5880 c3         1 5NH       0.017000
     37 C38         -4.0390     1.4110    -0.4160 c          1 5NH       0.594100
     38 O39         -3.7290     1.1070    -1.5610 o          1 5NH      -0.601100
     39 C40         -0.5420     2.3970     0.7900 c          1 5NH       0.509100
     40 N41         -5.3120     1.2270     0.0700 ns         1 5NH      -0.481900
     41 C42         -6.4020     0.5550    -0.6660 c3         1 5NH       0.086000
     42 C43         -6.1940    -0.9600    -0.6140 ca         1 5NH      -0.116300
     43 C44         -6.4100    -1.6740     0.5830 ca         1 5NH      -0.095000
     44 C45         -6.2190    -3.0660     0.6240 ca         1 5NH      -0.111000
     45 C46         -5.8100    -3.7540    -0.5300 ca         1 5NH      -0.096000
     46 C47         -5.5820    -3.0480    -1.7220 ca         1 5NH      -0.111000
     47 C48         -5.7700    -1.6560    -1.7640 ca         1 5NH      -0.095000
     48 C49         -7.8000     0.9810    -0.1030 c          1 5NH       0.597100
     49 O50         -7.8910     1.6150     0.9450 o          1 5NH      -0.600100
     50 N51         -8.9730     0.6020    -0.8050 n          1 5NH      -0.396800
     51 C52        -10.3070     0.9560    -0.2680 c3         1 5NH       0.084300
     52 C53         -8.9220    -0.1210    -2.0970 c3         1 5NH       0.084300
     53 H51         -2.0570    -1.0250    -0.8650 hc         1 5NH       0.049589
     54 H52         -3.2210    -1.7870     0.2350 hc         1 5NH       0.049589
     55 H53         -1.8180    -0.9440     0.8950 hc         1 5NH       0.049589
     56 H61         -1.3820    -4.7570    -1.1670 hc         1 5NH       0.049589
     57 H62         -2.9920    -4.1590    -0.7310 hc         1 5NH       0.049589
     58 H63         -2.0700    -3.3570    -2.0180 hc         1 5NH       0.049589
     59 H71         -0.9270    -2.9500     2.1670 hc         1 5NH       0.049589
     60 H72         -2.2330    -4.0250     1.6660 hc         1 5NH       0.049589
     61 H73         -0.5490    -4.4650     1.3180 hc         1 5NH       0.049589
     62 HN8          2.0380    -2.4640    -1.3930 hn         1 5NH       0.341500
     63 H9           3.1210    -0.5840     0.6610 h1         1 5NH       0.095700
     64 H10          5.2050    -1.9750     0.8330 hc         1 5NH       0.048700
     65 H111         3.5020    -1.9830     2.6560 hc         1 5NH       0.049450
     66 H112         2.6550    -3.3200     1.8880 hc         1 5NH       0.049450
     67 H121         5.5250    -3.3890     2.9970 hc         1 5NH       0.039200
     68 H122         4.1180    -4.1880     3.6910 hc         1 5NH       0.039200
     69 H131         5.5420    -5.7950     2.3690 hc         1 5NH       0.039200
     70 H132         3.9120    -5.6800     1.7120 hc         1 5NH       0.039200
     71 H141         6.4210    -4.2640     0.6170 hc         1 5NH       0.039200
     72 H142         5.5640    -5.6000    -0.1450 hc         1 5NH       0.039200
     73 H151         3.5520    -4.1970    -0.4920 hc         1 5NH       0.049450
     74 H152         4.9580    -3.4030    -1.1940 hc         1 5NH       0.049450
     75 H21          5.6920     0.0700     1.0660 h1         1 5NH       0.085700
     76 H22          6.9550     2.4790     0.7370 hc         1 5NH       0.092700
     77 H231         8.7310     1.2610    -0.5730 hc         1 5NH       0.051200
     78 H232         7.9280    -0.0550     0.2760 hc         1 5NH       0.051200
     79 H241         7.9490     0.4540    -2.6430 hc         1 5NH       0.057200
     80 H242         7.1280    -0.8830    -1.8410 hc         1 5NH       0.057200
     81 H25          5.4810     0.9710    -3.0390 h1         1 5NH       0.103700
     82 H261         5.3610     2.9970    -1.3390 hc         1 5NH       0.065200
     83 H262         7.0330     2.8550    -1.9080 hc         1 5NH       0.065200
     84 H27          3.3890     1.7520    -0.6610 hn         1 5NH       0.338500
     85 H28          1.9630     2.7380     1.7760 h1         1 5NH       0.124700
     86 H291         1.2840     4.8390     0.6280 hc         1 5NH       0.048700
     87 H292         2.2970     4.4400    -0.7550 hc         1 5NH       0.048700
     88 H301         4.3450     4.6100     0.6710 hc         1 5NH       0.049700
     89 H302         3.3460     4.9300     2.0900 hc         1 5NH       0.049700
     90 H311         2.5110     7.0440     1.0160 hc         1 5NH       0.035700
     91 H312         3.4980     6.7110    -0.4080 hc         1 5NH       0.035700
     92 H321         4.5900     7.2080     2.4270 hc         1 5NH       0.031700
     93 H322         5.5850     6.8740     0.9900 hc         1 5NH       0.031700
     94 H323         4.6220     8.3640     1.0780 hc         1 5NH       0.031700
     95 H36         -1.4950     1.6220    -0.8590 hn         1 5NH       0.361500
     96 H371        -3.0980     1.4610     1.5250 h1         1 5NH       0.073700
     97 H372        -3.3460     3.0660     0.7850 h1         1 5NH       0.073700
     98 H41         -5.5000     1.5370     1.0180 hn         1 5NH       0.329500
     99 H42         -6.3660     0.8950    -1.7080 h1         1 5NH       0.087700
    100 H44         -6.7250    -1.1520     1.4850 ha         1 5NH       0.122000
    101 H45         -6.3900    -3.6100     1.5500 ha         1 5NH       0.119000
    102 H46         -5.6640    -4.8320    -0.4980 ha         1 5NH       0.118000
    103 H47         -5.2580    -3.5790    -2.6150 ha         1 5NH       0.119000
    104 H48         -5.5860    -1.1190    -2.6920 ha         1 5NH       0.122000
    105 H521       -10.4550     2.0410    -0.3340 h1         1 5NH       0.043367
    106 H522       -11.1010     0.4530    -0.8350 h1         1 5NH       0.043367
    107 H523       -10.3800     0.6460     0.7820 h1         1 5NH       0.043367
    108 H531        -8.2160     0.3660    -2.7810 h1         1 5NH       0.043367
    109 H532        -8.6110    -1.1600    -1.9290 h1         1 5NH       0.043367
    110 H533        -9.9100    -0.1260    -2.5740 h1         1 5NH       0.043367
    111 O33          0.9170     1.5370    -1.0090 o          1 5NH      -0.497100
@<TRIPOS>BOND
     1     1     2 2   
     2     1     3 1   
     3     1     8 1   
     4     3     4 1   
     5     4     5 1   
     6     4     6 1   
     7     4     7 1   
     8     5    53 1   
     9     5    54 1   
    10     5    55 1   
    11     6    56 1   
    12     6    57 1   
    13     6    58 1   
    14     7    59 1   
    15     7    60 1   
    16     7    61 1   
    17     8     9 1   
    18     8    62 1   
    19     9    10 1   
    20     9    16 1   
    21     9    63 1   
    22    10    11 1   
    23    10    15 1   
    24    10    64 1   
    25    11    12 1   
    26    11    65 1   
    27    11    66 1   
    28    12    13 1   
    29    12    67 1   
    30    12    68 1   
    31    13    14 1   
    32    13    69 1   
    33    13    70 1   
    34    14    15 1   
    35    14    71 1   
    36    14    72 1   
    37    15    73 1   
    38    15    74 1   
    39    16    17 2   
    40    16    20 1   
    41    18    19 2   
    42    18    21 1   
    43    18    27 1   
    44    20    21 1   
    45    20    25 1   
    46    21    22 1   
    47    21    75 1   
    48    22    23 1   
    49    22    26 1   
    50    22    76 1   
    51    23    24 1   
    52    23    77 1   
    53    23    78 1   
    54    24    25 1   
    55    24    79 1   
    56    24    80 1   
    57    25    26 1   
    58    25    81 1   
    59    26    82 1   
    60    26    83 1   
    61    27    28 1   
    62    27    84 1   
    63    28    29 1   
    64    28    33 1   
    65    28    85 1   
    66    29    30 1   
    67    29    86 1   
    68    29    87 1   
    69    30    31 1   
    70    30    88 1   
    71    30    89 1   
    72    31    32 1   
    73    31    90 1   
    74    31    91 1   
    75    32    92 1   
    76    32    93 1   
    77    32    94 1   
    78    33    39 1   
    79    33   111 2   
    80    34    39 2   
    81    35    36 1   
    82    35    39 1   
    83    35    95 1   
    84    36    37 1   
    85    36    96 1   
    86    36    97 1   
    87    37    38 2   
    88    37    40 1   
    89    40    41 1   
    90    40    98 1   
    91    41    42 1   
    92    41    48 1   
    93    41    99 1   
    94    42    43 ar  
    95    42    47 ar  
    96    43    44 ar  
    97    43   100 1   
    98    44    45 ar  
    99    44   101 1   
   100    45    46 ar  
   101    45   102 1   
   102    46    47 ar  
   103    46   103 1   
   104    47   104 1   
   105    48    49 2   
   106    48    50 1   
   107    50    51 1   
   108    50    52 1   
   109    51   105 1   
   110    51   106 1   
   111    51   107 1   
   112    52   108 1   
   113    52   109 1   
   114    52   110 1   
@<TRIPOS>SUBSTRUCTURE
     1 5NH         1 TEMP              0 ****  ****    0 ROOT
