@<TRIPOS>MOLECULE
5NH
  111   114     1     0     0
SMALL
abcg2


@<TRIPOS>ATOM
      1 C1           1.2720    -1.9650     0.0300 c          1 5NH       0.658100
      2 O2           1.1970    -1.3600     1.0800 o          1 5NH      -0.557000
      3 O3           0.2910    -2.6670    -0.5370 os         1 5NH      -0.473100
      4 C4          -0.9580    -2.9590     0.1450 c3         1 5NH       0.226000
      5 C5          -1.7440    -1.6850     0.4230 c3         1 5NH      -0.110433
      6 C6          -1.7140    -3.8140    -0.8650 c3         1 5NH      -0.110433
      7 C7          -0.7030    -3.7630     1.4140 c3         1 5NH      -0.110433
      8 N8           2.3790    -2.0230    -0.7450 ns         1 5NH      -0.492900
      9 C9           3.6220    -1.4050    -0.3800 c3         1 5NH       0.050700
     10 C10          4.7040    -2.4270     0.0420 c6         1 5NH      -0.072700
     11 C11          4.4010    -2.9920     1.4300 c6         1 5NH      -0.074900
     12 C12          5.4920    -3.9530     1.8910 c6         1 5NH      -0.073400
     13 C13          5.7070    -5.0760     0.8820 c6         1 5NH      -0.076400
     14 C14          6.0030    -4.5140    -0.5040 c6         1 5NH      -0.073400
     15 C15          4.9060    -3.5590    -0.9660 c6         1 5NH      -0.074900
     16 C16          4.1360    -0.5520    -1.5370 c          1 5NH       0.598100
     17 O17          3.9270    -0.8710    -2.6960 o          1 5NH      -0.590100
     18 C18          4.1650     1.6000     0.9790 c          1 5NH       0.595100
     19 O19          4.3310     1.7350     2.1800 o          1 5NH      -0.596100
     20 N20          4.8510     0.5460    -1.2070 n          1 5NH      -0.423800
     21 C21          5.2580     0.9450     0.1390 c5         1 5NH       0.016700
     22 C22          6.4160     1.9070    -0.1830 c5         1 5NH      -0.073700
     23 C23          7.5690     1.0650    -0.7620 c5         1 5NH      -0.082400
     24 C24          7.0580     0.6790    -2.1770 c5         1 5NH      -0.103400
     25 C25          5.6560     1.2960    -2.1870 c5         1 5NH       0.100700
     26 C26          5.8850     2.6040    -1.4370 c5         1 5NH      -0.101400
     27 N27          3.0710     1.9950     0.3140 ns         1 5NH      -0.489900
     28 C28          1.8850     2.5030     0.9480 c3         1 5NH       0.025700
     29 C29          1.7630     4.0350     0.8420 c3         1 5NH      -0.084400
     30 C30          2.8900     4.7740     1.5500 c3         1 5NH      -0.072400
     31 C31          2.7420     6.2870     1.4420 c3         1 5NH      -0.076400
     32 C32          3.8620     7.0330     2.1530 c3         1 5NH      -0.088100
     33 C34          0.6770     1.8940     0.2750 c          1 5NH       0.496100
     34 O35         -0.6190     2.1060     2.2800 o          1 5NH      -0.583100
     35 N36         -1.7140     1.7160     0.3340 ns         1 5NH      -0.476900
     36 C37         -3.0280     1.5830     0.8990 c3         1 5NH       0.017000
     37 C38         -3.9500     0.9520    -0.1290 c          1 5NH       0.594100
     38 O39         -3.6880     0.9640    -1.3220 o          1 5NH      -0.601100
     39 C40         -0.6310     1.9230     1.0740 c          1 5NH       0.509100
     40 N41         -5.0510     0.3870     0.3780 ns         1 5NH      -0.481900
     41 C42         -6.0820    -0.1460    -0.4770 c3         1 5NH       0.086000
     42 C43         -7.0480    -0.9570     0.3570 ca         1 5NH      -0.116300
     43 C44         -8.0090    -0.3250     1.1410 ca         1 5NH      -0.095000
     44 C45         -8.8700    -1.0710     1.9330 ca         1 5NH      -0.111000
     45 C46         -8.7770    -2.4570     1.9500 ca         1 5NH      -0.096000
     46 C47         -7.8190    -3.0930     1.1720 ca         1 5NH      -0.111000
     47 C48         -6.9580    -2.3450     0.3810 ca         1 5NH      -0.095000
     48 C49         -6.8060     0.9990    -1.2100 c          1 5NH       0.597100
     49 O50         -6.6630     2.1490    -0.8240 o          1 5NH      -0.600100
     50 N51         -7.5900     0.6580    -2.2490 n          1 5NH      -0.396800
     51 C52         -8.4030     1.6640    -2.9020 c3         1 5NH       0.084300
     52 C53         -7.8840    -0.7030    -2.6480 c3         1 5NH       0.084300
     53 H51         -1.8450    -1.0930    -0.4860 hc         1 5NH       0.049589
     54 H52         -2.7480    -1.9480     0.7600 hc         1 5NH       0.049589
     55 H53         -1.2800    -1.0730     1.1930 hc         1 5NH       0.049589
     56 H61         -1.1680    -4.7270    -1.1050 hc         1 5NH       0.049589
     57 H62         -2.6800    -4.1010    -0.4500 hc         1 5NH       0.049589
     58 H63         -1.8970    -3.2660    -1.7910 hc         1 5NH       0.049589
     59 H71         -0.1860    -3.1860     2.1770 hc         1 5NH       0.049589
     60 H72         -1.6580    -4.0880     1.8290 hc         1 5NH       0.049589
     61 H73         -0.1190    -4.6590     1.1960 hc         1 5NH       0.049589
     62 HN8          2.3410    -2.5490    -1.6040 hn         1 5NH       0.341500
     63 H9           3.4070    -0.7750     0.4840 h1         1 5NH       0.095700
     64 H10          5.6560    -1.8830     0.1120 hc         1 5NH       0.048700
     65 H111         4.2970    -2.1750     2.1510 hc         1 5NH       0.049450
     66 H112         3.4400    -3.5170     1.4100 hc         1 5NH       0.049450
     67 H121         6.4290    -3.3990     2.0210 hc         1 5NH       0.039200
     68 H122         5.2360    -4.3630     2.8700 hc         1 5NH       0.039200
     69 H131         6.5210    -5.7280     1.2090 hc         1 5NH       0.039200
     70 H132         4.8070    -5.6990     0.8370 hc         1 5NH       0.039200
     71 H141         6.9610    -3.9820    -0.4840 hc         1 5NH       0.039200
     72 H142         6.1130    -5.3240    -1.2280 hc         1 5NH       0.039200
     73 H151         3.9720    -4.1200    -1.0750 hc         1 5NH       0.049450
     74 H152         5.1540    -3.1620    -1.9530 hc         1 5NH       0.049450
     75 H21          5.6270     0.1020     0.7290 h1         1 5NH       0.085700
     76 H22          6.6950     2.5350     0.6610 hc         1 5NH       0.092700
     77 H231         8.4780     1.6640    -0.8170 hc         1 5NH       0.051200
     78 H232         7.7910     0.1950    -0.1410 hc         1 5NH       0.051200
     79 H241         7.6730     1.1230    -2.9620 hc         1 5NH       0.057200
     80 H242         7.0380    -0.3970    -2.3500 hc         1 5NH       0.057200
     81 H25          5.1640     1.3540    -3.1540 h1         1 5NH       0.103700
     82 H261         4.9830     3.1990    -1.2900 hc         1 5NH       0.065200
     83 H262         6.6350     3.2280    -1.9240 hc         1 5NH       0.065200
     84 H27          3.0280     1.8260    -0.6800 hn         1 5NH       0.338500
     85 H28          1.8970     2.2210     2.0020 h1         1 5NH       0.124700
     86 H291         0.8060     4.3470     1.2680 hc         1 5NH       0.048700
     87 H292         1.7410     4.3150    -0.2160 hc         1 5NH       0.048700
     88 H301         3.8530     4.4800     1.1230 hc         1 5NH       0.049700
     89 H302         2.9140     4.4790     2.6030 hc         1 5NH       0.049700
     90 H311         1.7760     6.5900     1.8580 hc         1 5NH       0.035700
     91 H312         2.7220     6.5750     0.3860 hc         1 5NH       0.035700
     92 H321         3.8690     6.8090     3.2210 hc         1 5NH       0.031700
     93 H322         4.8380     6.7540     1.7520 hc         1 5NH       0.031700
     94 H323         3.7560     8.1130     2.0430 hc         1 5NH       0.031700
     95 H36         -1.6180     1.5730    -0.6620 hn         1 5NH       0.361500
     96 H371        -2.9930     0.9810     1.8090 h1         1 5NH       0.073700
     97 H372        -3.4420     2.5580     1.1790 h1         1 5NH       0.073700
     98 H41         -5.2370     0.4590     1.3670 hn         1 5NH       0.329500
     99 H42         -5.6030    -0.8020    -1.2070 h1         1 5NH       0.087700
    100 H44         -8.0920     0.7560     1.1400 ha         1 5NH       0.122000
    101 H45         -9.6160    -0.5680     2.5350 ha         1 5NH       0.119000
    102 H46         -9.4510    -3.0390     2.5650 ha         1 5NH       0.118000
    103 H47         -7.7400    -4.1720     1.1800 ha         1 5NH       0.119000
    104 H48         -6.2140    -2.8460    -0.2260 ha         1 5NH       0.122000
    105 H521        -8.0950     2.6600    -2.6050 h1         1 5NH       0.043367
    106 H522        -8.3000     1.5730    -3.9840 h1         1 5NH       0.043367
    107 H523        -9.4580     1.5340    -2.6490 h1         1 5NH       0.043367
    108 H531        -7.0540    -1.3800    -2.4660 h1         1 5NH       0.043367
    109 H532        -8.7680    -1.0900    -2.1370 h1         1 5NH       0.043367
    110 H533        -8.0760    -0.7190    -3.7200 h1         1 5NH       0.043367
    111 O33          0.7070     1.4370    -0.8390 o          1 5NH      -0.497100
@<TRIPOS>BOND
     1     1     2 2   
     2     1     3 1   
     3     1     8 1   
     4     3     4 1   
     5     4     5 1   
     6     4     6 1   
     7     4     7 1   
     8     5    53 1   
     9     5    54 1   
    10     5    55 1   
    11     6    56 1   
    12     6    57 1   
    13     6    58 1   
    14     7    59 1   
    15     7    60 1   
    16     7    61 1   
    17     8     9 1   
    18     8    62 1   
    19     9    10 1   
    20     9    16 1   
    21     9    63 1   
    22    10    11 1   
    23    10    15 1   
    24    10    64 1   
    25    11    12 1   
    26    11    65 1   
    27    11    66 1   
    28    12    13 1   
    29    12    67 1   
    30    12    68 1   
    31    13    14 1   
    32    13    69 1   
    33    13    70 1   
    34    14    15 1   
    35    14    71 1   
    36    14    72 1   
    37    15    73 1   
    38    15    74 1   
    39    16    17 2   
    40    16    20 1   
    41    18    19 2   
    42    18    21 1   
    43    18    27 1   
    44    20    21 1   
    45    20    25 1   
    46    21    22 1   
    47    21    75 1   
    48    22    23 1   
    49    22    26 1   
    50    22    76 1   
    51    23    24 1   
    52    23    77 1   
    53    23    78 1   
    54    24    25 1   
    55    24    79 1   
    56    24    80 1   
    57    25    26 1   
    58    25    81 1   
    59    26    82 1   
    60    26    83 1   
    61    27    28 1   
    62    27    84 1   
    63    28    29 1   
    64    28    33 1   
    65    28    85 1   
    66    29    30 1   
    67    29    86 1   
    68    29    87 1   
    69    30    31 1   
    70    30    88 1   
    71    30    89 1   
    72    31    32 1   
    73    31    90 1   
    74    31    91 1   
    75    32    92 1   
    76    32    93 1   
    77    32    94 1   
    78    33    39 1   
    79    33   111 2   
    80    34    39 2   
    81    35    36 1   
    82    35    39 1   
    83    35    95 1   
    84    36    37 1   
    85    36    96 1   
    86    36    97 1   
    87    37    38 2   
    88    37    40 1   
    89    40    41 1   
    90    40    98 1   
    91    41    42 1   
    92    41    48 1   
    93    41    99 1   
    94    42    43 ar  
    95    42    47 ar  
    96    43    44 ar  
    97    43   100 1   
    98    44    45 ar  
    99    44   101 1   
   100    45    46 ar  
   101    45   102 1   
   102    46    47 ar  
   103    46   103 1   
   104    47   104 1   
   105    48    49 2   
   106    48    50 1   
   107    50    51 1   
   108    50    52 1   
   109    51   105 1   
   110    51   106 1   
   111    51   107 1   
   112    52   108 1   
   113    52   109 1   
   114    52   110 1   
@<TRIPOS>SUBSTRUCTURE
     1 5NH         1 TEMP              0 ****  ****    0 ROOT
