@<TRIPOS>MOLECULE
5NI
   17    18     1     0     0
SMALL
abcg2


@<TRIPOS>ATOM
      1 C6           0.7440    -1.4170     0.0090 ca         1 5NI      -0.020000
      2 C7          -0.5870    -1.7460     0.0320 ca         1 5NI      -0.139000
      3 C8          -1.5070    -0.6900     0.0260 ca         1 5NI      -0.006200
      4 C9          -1.0980     0.6580    -0.0010 ca         1 5NI      -0.259900
      5 C4           0.2550     0.9830    -0.0240 ca         1 5NI       0.051000
      6 C5           1.1500    -0.0660    -0.0180 ca         1 5NI      -0.224200
      7 N1          -2.8510    -0.6640     0.0440 na         1 5NI      -0.052400
      8 N2          -3.3390     0.5820     0.0300 nc         1 5NI      -0.506100
      9 C3          -2.3160     1.3930     0.0030 cd         1 5NI       0.376800
     10 N10          2.5670     0.2330    -0.0410 no         1 5NI       0.699200
     11 O11          3.3480    -0.6930    -0.0330 o          1 5NI      -0.404500
     12 O12          2.9090     1.3930    -0.0670 o          1 5NI      -0.404500
     13 H61          1.4820    -2.2050     0.0110 ha         1 5NI       0.152000
     14 H71         -0.9030    -2.7800     0.0520 ha         1 5NI       0.134000
     15 H41          0.5780     2.0140    -0.0460 ha         1 5NI       0.157000
     16 HN11        -3.4850    -1.4470     0.0660 hn         1 5NI       0.384000
     17 H31         -2.4550     2.4620    -0.0110 h4         1 5NI       0.060800
@<TRIPOS>BOND
     1     1     2 ar  
     2     1     6 ar  
     3     1    13 1   
     4     2     3 ar  
     5     2    14 1   
     6     3     4 ar  
     7     3     7 1   
     8     4     5 ar  
     9     4     9 1   
    10     5     6 ar  
    11     5    15 1   
    12     6    10 1   
    13     7     8 1   
    14     7    16 1   
    15     8     9 2   
    16     9    17 1   
    17    10    11 1   
    18    10    12 1   
@<TRIPOS>SUBSTRUCTURE
     1 5NI         1 TEMP              0 ****  ****    0 ROOT
