@<TRIPOS>MOLECULE
5NI
   17    18     1     0     0
SMALL
No Charge or Current Charge


@<TRIPOS>ATOM
      1 C6           0.7580    -1.4300     0.0090 ca         1 5NI      -0.020000
      2 C7          -0.6190    -1.7390     0.0320 ca         1 5NI      -0.139000
      3 C8          -1.5280    -0.6770     0.0270 ca         1 5NI      -0.006200
      4 C9          -1.1160     0.6140     0.0000 ca         1 5NI      -0.259900
      5 C4           0.2380     0.9750    -0.0230 ca         1 5NI       0.051000
      6 C5           1.1970    -0.0720    -0.0190 ca         1 5NI      -0.224200
      7 N1          -2.9100    -0.6910     0.0450 na         1 5NI      -0.052400
      8 N2          -3.4110     0.6270     0.0300 nc         1 5NI      -0.506100
      9 C3          -2.3190     1.4110     0.0030 cd         1 5NI       0.376800
     10 N10          2.6560     0.2520    -0.0430 no         1 5NI       0.699200
     11 O11          3.4640    -0.6860    -0.0380 o          1 5NI      -0.404500
     12 O12          2.9900     1.4440    -0.0670 o          1 5NI      -0.404500
     13 H61          1.4780    -2.2470     0.0130 ha         1 5NI       0.152000
     14 H71         -0.9600    -2.7720     0.0540 ha         1 5NI       0.134000
     15 H41          0.5280     2.0250    -0.0440 ha         1 5NI       0.157000
     16 HN11        -3.5140    -1.5110     0.0660 hn         1 5NI       0.384000
     17 H31         -2.4390     2.4870    -0.0130 h4         1 5NI       0.060800
@<TRIPOS>BOND
     1     1     2 ar  
     2     1     6 ar  
     3     1    13 1   
     4     2     3 ar  
     5     2    14 1   
     6     3     4 ar  
     7     3     7 1   
     8     4     5 ar  
     9     4     9 1   
    10     5     6 ar  
    11     5    15 1   
    12     6    10 1   
    13     7     8 1   
    14     7    16 1   
    15     8     9 2   
    16     9    17 1   
    17    10    11 1   
    18    10    12 1   
@<TRIPOS>SUBSTRUCTURE
     1 5NI         1 TEMP              0 ****  ****    0 ROOT
