@<TRIPOS>MOLECULE
5NK
   59    62     1     0     0
SMALL
No Charge or Current Charge


@<TRIPOS>ATOM
      1 C10         -1.3900     5.0300     1.1920 c3         1 5NK      -0.034800
      2 C15         -1.8950    -4.0840     0.7760 ca         1 5NK      -0.112000
      3 C17         -3.3930    -2.2800     0.1990 ca         1 5NK       0.108100
      4 C20          2.5950     1.1100    -1.1080 c6         1 5NK      -0.087400
      5 C21          4.0370     1.2450    -0.5690 c6         1 5NK       0.172800
      6 C24          2.3070    -0.9410     0.3340 c6         1 5NK      -0.087400
      7 C01         -2.3520     3.9880     0.6370 ca         1 5NK      -0.036300
      8 C02         -3.7440     4.2390     0.5850 ca         1 5NK      -0.129000
      9 C03         -4.6350     3.2670     0.0740 ca         1 5NK      -0.113000
     10 C04         -4.1490     2.0310    -0.3950 ca         1 5NK      -0.113000
     11 C05         -1.8880     2.7460     0.1630 ca         1 5NK       0.104400
     12 C06         -2.7640     1.8140    -0.3360 ca         1 5NK      -0.078200
     13 N07         -2.0070     0.7380    -0.7050 na         1 5NK      -0.216600
     14 C08         -0.6900     1.0590    -0.4010 cc         1 5NK       0.657700
     15 N09         -0.5690     2.2820     0.1270 nd         1 5NK      -0.657100
     16 C11         -2.5270    -0.4580    -1.4030 c3         1 5NK       0.043300
     17 C12         -2.3500    -1.7500    -0.6110 ca         1 5NK       0.305300
     18 N13         -1.1310    -2.3450    -0.7280 nb         1 5NK      -0.677000
     19 C14         -0.9180    -3.4940    -0.0480 ca         1 5NK       0.331300
     20 C16         -3.1550    -3.4710     0.9050 ca         1 5NK      -0.163000
     21 N18          0.3520     0.2110    -0.6150 nu         1 5NK      -0.891400
     22 C19          1.6950     0.4170    -0.0640 c6         1 5NK       0.242500
     23 N22          4.6080    -0.0770    -0.1850 n3         1 5NK      -0.728600
     24 C23          3.7570    -0.7580     0.8350 c6         1 5NK       0.172800
     25 C25          6.0380     0.0380     0.2170 c3         1 5NK       0.169800
     26 N27          8.2350    -1.1450     0.7170 n8         1 5NK      -0.998200
     27 H1          -0.8510     4.6400     2.0630 hc         1 5NK       0.041700
     28 H2          -0.6480     5.3180     0.4380 hc         1 5NK       0.041700
     29 H3          -1.9140     5.9410     1.5060 hc         1 5NK       0.041700
     30 H4          -1.6750    -5.0070     1.3060 ha         1 5NK       0.126000
     31 H5           2.1970     2.1040    -1.3500 hc         1 5NK       0.055950
     32 H6           2.6050     0.5340    -2.0420 hc         1 5NK       0.055950
     33 H7           4.6570     1.7150    -1.3470 h1         1 5NK       0.031700
     34 H8           4.0350     1.9240     0.2960 h1         1 5NK       0.031700
     35 H9           1.7020    -1.4120     1.1200 hc         1 5NK       0.055950
     36 H10          2.3050    -1.6240    -0.5260 hc         1 5NK       0.055950
     37 H11          6.3330    -1.8740     1.2460 h1         1 5NK       0.034200
     38 H12          6.6930    -1.9150    -0.4970 h1         1 5NK       0.034200
     39 H13          1.0830    -3.9140     0.6570 hc         1 5NK       0.052033
     40 H14          0.3650    -5.2180    -0.3030 hc         1 5NK       0.052033
     41 H15          0.9650    -3.7620    -1.1060 hc         1 5NK       0.052033
     42 H16         -4.1380     5.1870     0.9430 ha         1 5NK       0.107000
     43 H17         -5.7030     3.4740     0.0450 ha         1 5NK       0.107000
     44 H18         -4.8330     1.2800    -0.7820 ha         1 5NK       0.118000
     45 H19         -3.5850    -0.3210    -1.6480 h1         1 5NK       0.078700
     46 H20         -1.9950    -0.5540    -2.3570 h1         1 5NK       0.078700
     47 H21         -3.9190    -3.9170     1.5380 ha         1 5NK       0.123000
     48 H22          0.0280    -0.7480    -0.7670 hn         1 5NK       0.512000
     49 H23          1.6530     1.0480     0.8380 h1         1 5NK       0.056700
     50 H25          3.7440    -0.1770     1.7700 h1         1 5NK       0.031700
     51 H26          4.1580    -1.7520     1.0770 h1         1 5NK       0.031700
     52 H27          6.1150     0.6210     1.1460 h1         1 5NK       0.037700
     53 H28          6.5800     0.6000    -0.5560 h1         1 5NK       0.037700
     54 H29          8.3370    -0.6750     1.6240 hn         1 5NK       0.391000
     55 H30          8.6520    -2.0700     0.8780 hn         1 5NK       0.391000
     56 H32         -5.1800    -2.1860     0.9150 ho         1 5NK       0.472000
     57 O29         -4.6140    -1.6630     0.3070 oh         1 5NK      -0.525100
     58 C26          6.7890    -1.3140     0.4180 c3         1 5NK       0.146800
     59 C28          0.4490    -4.1290    -0.2110 c3         1 5NK      -0.140400
@<TRIPOS>BOND
     1     1     7 1   
     2     1    27 1   
     3     1    28 1   
     4     1    29 1   
     5     2    19 ar  
     6     2    20 ar  
     7     2    30 1   
     8     3    17 ar  
     9     3    20 ar  
    10     3    57 1   
    11     4     5 1   
    12     4    22 1   
    13     4    31 1   
    14     4    32 1   
    15     5    23 1   
    16     5    33 1   
    17     5    34 1   
    18     6    22 1   
    19     6    24 1   
    20     6    35 1   
    21     6    36 1   
    22     7     8 ar  
    23     7    11 ar  
    24     8     9 ar  
    25     8    42 1   
    26     9    10 ar  
    27     9    43 1   
    28    10    12 ar  
    29    10    44 1   
    30    11    12 ar  
    31    11    15 1   
    32    12    13 1   
    33    13    14 1   
    34    13    16 1   
    35    14    15 2   
    36    14    21 1   
    37    16    17 1   
    38    16    45 1   
    39    16    46 1   
    40    17    18 ar  
    41    18    19 ar  
    42    19    59 1   
    43    20    47 1   
    44    21    22 1   
    45    21    48 1   
    46    22    49 1   
    47    23    24 1   
    48    23    25 1   
    49    24    50 1   
    50    24    51 1   
    51    25    52 1   
    52    25    53 1   
    53    25    58 1   
    54    26    54 1   
    55    26    55 1   
    56    26    58 1   
    57    37    58 1   
    58    38    58 1   
    59    39    59 1   
    60    40    59 1   
    61    41    59 1   
    62    56    57 1   
@<TRIPOS>SUBSTRUCTURE
     1 5NK         1 TEMP              0 ****  ****    0 ROOT
