@<TRIPOS>MOLECULE
5NK
   59    62     1     0     0
SMALL
abcg2


@<TRIPOS>ATOM
      1 C10         -1.2510     4.7400     1.4120 c3         1 5NK      -0.034800
      2 C15         -2.6600    -4.0240     0.9150 ca         1 5NK      -0.112000
      3 C17         -3.7060    -2.3150    -0.3940 ca         1 5NK       0.108100
      4 C20          2.5780     1.1830    -0.8640 c6         1 5NK      -0.087400
      5 C21          4.0000     1.3910    -0.3670 c6         1 5NK       0.172800
      6 C24          2.5800    -1.0320     0.2580 c6         1 5NK      -0.087400
      7 C01         -2.1780     3.7770     0.7370 ca         1 5NK      -0.036300
      8 C02         -3.5320     4.0430     0.5530 ca         1 5NK      -0.129000
      9 C03         -4.3940     3.1320    -0.0630 ca         1 5NK      -0.113000
     10 C04         -3.9370     1.9050    -0.5290 ca         1 5NK      -0.113000
     11 C05         -1.7130     2.5480     0.2690 ca         1 5NK       0.104400
     12 C06         -2.5880     1.6450    -0.3540 ca         1 5NK      -0.078200
     13 N07         -1.8000     0.5640    -0.6940 na         1 5NK      -0.216600
     14 C08         -0.5340     0.8490    -0.2490 cc         1 5NK       0.657700
     15 N09         -0.4420     2.0250     0.3240 nd         1 5NK      -0.657100
     16 C11         -2.1950    -0.5800    -1.4870 c3         1 5NK       0.043300
     17 C12         -2.4310    -1.8110    -0.6480 ca         1 5NK       0.305300
     18 N13         -1.3410    -2.3830    -0.1490 nb         1 5NK      -0.677000
     19 C14         -1.4220    -3.4590     0.6240 ca         1 5NK       0.331300
     20 C16         -3.8090    -3.4500     0.4030 ca         1 5NK      -0.163000
     21 N18          0.4750    -0.0290    -0.4370 nu         1 5NK      -0.891400
     22 C19          1.8030     0.2630     0.0720 c6         1 5NK       0.242500
     23 N22          4.6930     0.1230    -0.2270 n3         1 5NK      -0.728600
     24 C23          3.9980    -0.7330     0.7180 c6         1 5NK       0.172800
     25 C25          6.0940     0.2950     0.1080 c3         1 5NK       0.169800
     26 N27          8.3340    -0.6630     0.0850 n8         1 5NK      -0.998200
     27 H1          -0.8790     4.3370     2.3560 hc         1 5NK       0.041700
     28 H2          -0.3760     4.9530     0.7960 hc         1 5NK       0.041700
     29 H3          -1.7490     5.6840     1.6280 hc         1 5NK       0.041700
     30 H4          -2.7270    -4.9060     1.5370 ha         1 5NK       0.126000
     31 H5           2.0740     2.1480    -0.9500 hc         1 5NK       0.055950
     32 H6           2.6050     0.7350    -1.8610 hc         1 5NK       0.055950
     33 H7           4.5440     2.0130    -1.0810 h1         1 5NK       0.031700
     34 H8           3.9800     1.9530     0.5850 h1         1 5NK       0.031700
     35 H9           2.0890    -1.6690     0.9980 hc         1 5NK       0.055950
     36 H10          2.6100    -1.5860    -0.6850 hc         1 5NK       0.055950
     37 H11          6.5380    -1.8260     0.1680 h1         1 5NK       0.034200
     38 H12          6.8850    -1.0380    -1.3600 h1         1 5NK       0.034200
     39 H13          0.2110    -3.4040     2.0100 hc         1 5NK       0.052033
     40 H14         -0.2760    -5.0290     1.5460 hc         1 5NK       0.052033
     41 H15          0.6390    -4.0210     0.4210 hc         1 5NK       0.052033
     42 H16         -3.9320     4.9870     0.9060 ha         1 5NK       0.107000
     43 H17         -5.4410     3.3850    -0.1760 ha         1 5NK       0.107000
     44 H18         -4.6080     1.1930    -0.9920 ha         1 5NK       0.118000
     45 H19         -3.0770    -0.3030    -2.0600 h1         1 5NK       0.078700
     46 H20         -1.4020    -0.7870    -2.2100 h1         1 5NK       0.078700
     47 H21         -4.7790    -3.8820     0.6200 ha         1 5NK       0.123000
     48 H22          0.1860    -1.0050    -0.4370 hn         1 5NK       0.512000
     49 H23          1.7210     0.7550     1.0500 h1         1 5NK       0.056700
     50 H25          3.9620    -0.2690     1.7210 h1         1 5NK       0.031700
     51 H26          4.5420    -1.6710     0.8310 h1         1 5NK       0.031700
     52 H27          6.2330     0.5220     1.1800 h1         1 5NK       0.037700
     53 H28          6.4770     1.1600    -0.4390 h1         1 5NK       0.037700
     54 H29          8.4250    -0.6900     1.0930 hn         1 5NK       0.391000
     55 H30          8.9090    -1.4220    -0.2570 hn         1 5NK       0.391000
     56 H32         -5.5870    -2.1410    -0.6900 ho         1 5NK       0.472000
     57 O29         -4.7690    -1.6910    -0.9320 oh         1 5NK      -0.525100
     58 C26          6.9450    -0.9080    -0.2780 c3         1 5NK       0.146800
     59 C28         -0.1450    -4.0130     1.1770 c3         1 5NK      -0.140400
@<TRIPOS>BOND
     1     1     7 1   
     2     1    27 1   
     3     1    28 1   
     4     1    29 1   
     5     2    19 ar  
     6     2    20 ar  
     7     2    30 1   
     8     3    17 ar  
     9     3    20 ar  
    10     3    57 1   
    11     4     5 1   
    12     4    22 1   
    13     4    31 1   
    14     4    32 1   
    15     5    23 1   
    16     5    33 1   
    17     5    34 1   
    18     6    22 1   
    19     6    24 1   
    20     6    35 1   
    21     6    36 1   
    22     7     8 ar  
    23     7    11 ar  
    24     8     9 ar  
    25     8    42 1   
    26     9    10 ar  
    27     9    43 1   
    28    10    12 ar  
    29    10    44 1   
    30    11    12 ar  
    31    11    15 1   
    32    12    13 1   
    33    13    14 1   
    34    13    16 1   
    35    14    15 2   
    36    14    21 1   
    37    16    17 1   
    38    16    45 1   
    39    16    46 1   
    40    17    18 ar  
    41    18    19 ar  
    42    19    59 1   
    43    20    47 1   
    44    21    22 1   
    45    21    48 1   
    46    22    49 1   
    47    23    24 1   
    48    23    25 1   
    49    24    50 1   
    50    24    51 1   
    51    25    52 1   
    52    25    53 1   
    53    25    58 1   
    54    26    54 1   
    55    26    55 1   
    56    26    58 1   
    57    37    58 1   
    58    38    58 1   
    59    39    59 1   
    60    40    59 1   
    61    41    59 1   
    62    56    57 1   
@<TRIPOS>SUBSTRUCTURE
     1 5NK         1 TEMP              0 ****  ****    0 ROOT
