@<TRIPOS>MOLECULE
5NL
   30    32     1     0     0
SMALL
No Charge or Current Charge


@<TRIPOS>ATOM
      1 C            3.4860    -1.1340    -0.1600 c          1 5NL       0.561000
      2 CA           2.0110    -0.7380     0.1630 c5         1 5NL       0.020700
      3 CG          -0.2800    -0.1900    -0.8450 ca         1 5NL      -0.091300
      4 CD1         -0.6570     1.1100    -1.2340 ca         1 5NL      -0.106000
      5 CE1         -1.9580     1.5770    -0.9830 ca         1 5NL      -0.095000
      6 CZ          -2.8950     0.7470    -0.3400 ca         1 5NL      -0.035000
      7 CE2         -2.5230    -0.5570     0.0520 ca         1 5NL      -0.037000
      8 CD2         -1.2180    -1.0200    -0.2010 ca         1 5NL      -0.092000
      9 N10          2.2030     0.5980     0.7850 ns         1 5NL      -0.517900
     10 C2           3.5140     0.9590     0.8080 c          1 5NL       0.614000
     11 N11          4.1880    -0.0620     0.2670 ns         1 5NL      -0.484500
     12 C1          -3.4590    -1.3890     0.6960 ca         1 5NL      -0.098000
     13 C3          -4.7610    -0.9220     0.9480 ca         1 5NL      -0.105000
     14 C5          -5.1310     0.3760     0.5570 ca         1 5NL      -0.104000
     15 C6          -4.2000     1.2110    -0.0860 ca         1 5NL      -0.098000
     16 C4           1.1330    -0.6960    -1.1090 c3         1 5NL      -0.029100
     17 O3           3.9550    -2.1360    -0.6790 o          1 5NL      -0.503000
     18 O2           3.9790     1.9970     1.2360 o          1 5NL      -0.542000
     19 HA           1.6070    -1.4670     0.8780 h1         1 5NL       0.082700
     20 H11          5.1910    -0.0280     0.1770 hn         1 5NL       0.356500
     21 H10          1.4920     1.2300     1.1340 hn         1 5NL       0.354500
     22 H41C         1.6190    -0.0690    -1.8670 hc         1 5NL       0.070200
     23 H42C         1.0840    -1.7010    -1.5490 hc         1 5NL       0.070200
     24 HD1          0.0590     1.7630    -1.7290 ha         1 5NL       0.118000
     25 HD2         -0.9310    -2.0240     0.1020 ha         1 5NL       0.114000
     26 HE1         -2.2360     2.5840    -1.2880 ha         1 5NL       0.117000
     27 H6          -4.4940     2.2140    -0.3850 ha         1 5NL       0.115000
     28 H1          -3.1800    -2.3950     1.0020 ha         1 5NL       0.114000
     29 HB          -5.4820    -1.5660     1.4460 ha         1 5NL       0.115000
     30 HC          -6.1390     0.7360     0.7520 ha         1 5NL       0.115000
@<TRIPOS>BOND
     1     1     2 1   
     2     1    11 1   
     3     1    17 2   
     4     2     9 1   
     5     2    16 1   
     6     2    19 1   
     7     3     4 ar  
     8     3     8 ar  
     9     3    16 1   
    10     4     5 ar  
    11     4    24 1   
    12     5     6 ar  
    13     5    26 1   
    14     6     7 ar  
    15     6    15 ar  
    16     7     8 ar  
    17     7    12 ar  
    18     8    25 1   
    19     9    10 1   
    20     9    21 1   
    21    10    11 1   
    22    10    18 2   
    23    11    20 1   
    24    12    13 ar  
    25    12    28 1   
    26    13    14 ar  
    27    13    29 1   
    28    14    15 ar  
    29    14    30 1   
    30    15    27 1   
    31    16    22 1   
    32    16    23 1   
@<TRIPOS>SUBSTRUCTURE
     1 5NL         1 TEMP              0 ****  ****    0 ROOT
