@<TRIPOS>MOLECULE
5NL
   30    32     1     0     0
SMALL
abcg2


@<TRIPOS>ATOM
      1 C            3.4220    -1.0850    -0.0960 c          1 5NL       0.561000
      2 CA           1.9940    -0.6320     0.1670 c5         1 5NL       0.020700
      3 CG          -0.2780    -0.2700    -0.8260 ca         1 5NL      -0.091300
      4 CD1         -0.6100     1.0740    -1.1220 ca         1 5NL      -0.106000
      5 CE1         -1.8590     1.5660    -0.8590 ca         1 5NL      -0.095000
      6 CZ          -2.8530     0.7430    -0.2810 ca         1 5NL      -0.035000
      7 CE2         -2.5310    -0.6060     0.0180 ca         1 5NL      -0.037000
      8 CD2         -1.2310    -1.0820    -0.2670 ca         1 5NL      -0.092000
      9 N10          2.1930     0.7300     0.5940 ns         1 5NL      -0.517900
     10 C2           3.4950     1.0720     0.6810 c          1 5NL       0.614000
     11 N11          4.2180    -0.0330     0.2310 ns         1 5NL      -0.484500
     12 C1          -3.5230    -1.4370     0.5910 ca         1 5NL      -0.098000
     13 C3          -4.7730    -0.9480     0.8560 ca         1 5NL      -0.105000
     14 C5          -5.0930     0.3950     0.5600 ca         1 5NL      -0.104000
     15 C6          -4.1540     1.2200     0.0030 ca         1 5NL      -0.098000
     16 C4           1.1150    -0.7750    -1.0780 c3         1 5NL      -0.029100
     17 O3           3.7710    -2.1590    -0.5240 o          1 5NL      -0.503000
     18 O2           3.9770     2.1150     1.0620 o          1 5NL      -0.542000
     19 HA           1.5770    -1.2420     0.9770 h1         1 5NL       0.082700
     20 H11          5.2240    -0.0300     0.1510 hn         1 5NL       0.356500
     21 H10          1.4710     1.2950     1.0100 hn         1 5NL       0.354500
     22 H41C         1.5730    -0.2300    -1.9070 hc         1 5NL       0.070200
     23 H42C         1.0920    -1.8300    -1.3530 hc         1 5NL       0.070200
     24 HD1          0.1370     1.7160    -1.5730 ha         1 5NL       0.118000
     25 HD2         -0.9940    -2.1150    -0.0330 ha         1 5NL       0.114000
     26 HE1         -2.0990     2.5950    -1.0970 ha         1 5NL       0.117000
     27 H6          -4.3970     2.2510    -0.2280 ha         1 5NL       0.115000
     28 H1          -3.2780    -2.4670     0.8200 ha         1 5NL       0.114000
     29 HB          -5.5250    -1.5910     1.2950 ha         1 5NL       0.115000
     30 HC          -6.0860     0.7670     0.7750 ha         1 5NL       0.115000
@<TRIPOS>BOND
     1     1     2 1   
     2     1    11 1   
     3     1    17 2   
     4     2     9 1   
     5     2    16 1   
     6     2    19 1   
     7     3     4 ar  
     8     3     8 ar  
     9     3    16 1   
    10     4     5 ar  
    11     4    24 1   
    12     5     6 ar  
    13     5    26 1   
    14     6     7 ar  
    15     6    15 ar  
    16     7     8 ar  
    17     7    12 ar  
    18     8    25 1   
    19     9    10 1   
    20     9    21 1   
    21    10    11 1   
    22    10    18 2   
    23    11    20 1   
    24    12    13 ar  
    25    12    28 1   
    26    13    14 ar  
    27    13    29 1   
    28    14    15 ar  
    29    14    30 1   
    30    15    27 1   
    31    16    22 1   
    32    16    23 1   
@<TRIPOS>SUBSTRUCTURE
     1 5NL         1 TEMP              0 ****  ****    0 ROOT
