@<TRIPOS>MOLECULE
5NM
   53    57     1     0     0
SMALL
No Charge or Current Charge


@<TRIPOS>ATOM
      1 C10         -1.2470     0.3460    -2.2060 c3         1 5NM       0.103700
      2 C13         -4.8950     0.0130     1.2190 cx         1 5NM       0.047700
      3 C15         -6.2150     0.7150     1.4310 cx         1 5NM      -0.122900
      4 C22         -3.5050     2.8610     1.3990 ca         1 5NM      -0.167000
      5 C24         -1.5830     3.1590    -0.5990 ca         1 5NM       0.358900
      6 C26         -0.1180    -2.4330     0.0150 c3         1 5NM      -0.072400
      7 C28          4.2540     0.4870     0.3530 ca         1 5NM      -0.067000
      8 C01         -3.2730    -0.1220    -0.7460 c          1 5NM       0.596000
      9 N02         -2.2880     0.7520    -1.2340 n          1 5NM      -0.293000
     10 N03         -3.8570     0.5430     0.3440 n          1 5NM      -0.263000
     11 C04          0.1650     0.4990    -1.6860 cc         1 5NM       0.388800
     12 N05          1.1120     1.2460    -2.2930 nd         1 5NM      -0.563100
     13 C06         -2.2250     1.9210    -0.4160 ca         1 5NM      -0.062400
     14 C07         -3.2260     1.8040     0.5280 ca         1 5NM       0.039600
     15 N08          0.6760    -0.1070    -0.5270 na         1 5NM      -0.163600
     16 C09          2.2380     1.0850    -1.4900 ca         1 5NM       0.065400
     17 C11          1.9860     0.2650    -0.4240 ca         1 5NM      -0.068200
     18 S12         -1.0250    -5.0420     0.5540 s6         1 5NM       1.086000
     19 C14         -6.1720    -0.6020     0.6970 cx         1 5NM      -0.122900
     20 C16          3.5090     1.6460    -1.6780 ca         1 5NM      -0.015000
     21 C18          2.9680    -0.0670     0.5240 ca         1 5NM      -0.111000
     22 O19         -1.7920    -5.1270    -0.6950 o          1 5NM      -0.513500
     23 O20          0.3230    -5.6200     0.6150 o          1 5NM      -0.513500
     24 N21         -1.8240     4.2040     0.2400 nb         1 5NM      -0.663000
     25 C23          4.5210     1.3410    -0.7430 ca         1 5NM      -0.040900
     26 C25         -0.0070    -0.9630     0.4630 c3         1 5NM       0.077600
     27 C27         -0.9100    -3.3000     1.0280 c3         1 5NM      -0.306400
     28 C29         -2.0040    -5.7940     1.8500 c3         1 5NM      -0.336100
     29 Br3          6.2700     2.0840    -0.9610 br         1 5NM      -0.097100
     30 C31         -2.7530     4.0420     1.2260 ca         1 5NM       0.337900
     31 H1          -1.3980    -0.7000    -2.4980 h1         1 5NM       0.090700
     32 H2          -1.3590     0.9570    -3.1100 h1         1 5NM       0.090700
     33 H3          -4.4140    -0.4530     2.0800 h1         1 5NM       0.092700
     34 H4          -6.6250     0.7240     2.4390 hc         1 5NM       0.084950
     35 H5          -6.4140     1.6120     0.8500 hc         1 5NM       0.084950
     36 H6          -4.2750     2.7940     2.1610 ha         1 5NM       0.134000
     37 H7          -0.8710     3.3200    -1.4080 h4         1 5NM       0.050100
     38 H8          -0.6110    -2.4770    -0.9650 hc         1 5NM       0.074700
     39 H9           0.8930    -2.8410    -0.1150 hc         1 5NM       0.074700
     40 H10          5.0430     0.2560     1.0660 ha         1 5NM       0.131000
     41 H11         -6.3420    -0.5890    -0.3770 hc         1 5NM       0.084950
     42 H12         -6.5510    -1.4840     1.2080 hc         1 5NM       0.084950
     43 H13          3.7070     2.2970    -2.5250 ha         1 5NM       0.147000
     44 H14          2.7590    -0.7270     1.3610 ha         1 5NM       0.124000
     45 H15         -1.0090    -0.5610     0.6510 h1         1 5NM       0.071200
     46 H16          0.5290    -0.9150     1.4190 h1         1 5NM       0.071200
     47 H17         -0.4300    -3.2840     2.0140 h1         1 5NM       0.099700
     48 H18         -1.9420    -2.9400     1.1210 h1         1 5NM       0.099700
     49 H19         -1.4720    -5.6480     2.7960 h1         1 5NM       0.105700
     50 H20         -2.9800    -5.2970     1.8620 h1         1 5NM       0.105700
     51 H21         -2.1040    -6.8580     1.6130 h1         1 5NM       0.105700
     52 H22         -2.9240     4.9020     1.8730 h4         1 5NM       0.023100
     53 O17         -3.5310    -1.2440    -1.1570 o          1 5NM      -0.567000
@<TRIPOS>BOND
     1     1     9 1   
     2     1    11 1   
     3     1    31 1   
     4     1    32 1   
     5     2     3 1   
     6     2    10 1   
     7     2    19 1   
     8     2    33 1   
     9     3    19 1   
    10     3    34 1   
    11     3    35 1   
    12     4    14 ar  
    13     4    30 ar  
    14     4    36 1   
    15     5    13 ar  
    16     5    24 ar  
    17     5    37 1   
    18     6    26 1   
    19     6    27 1   
    20     6    38 1   
    21     6    39 1   
    22     7    21 ar  
    23     7    25 ar  
    24     7    40 1   
    25     8     9 1   
    26     8    10 1   
    27     8    53 2   
    28     9    13 1   
    29    10    14 1   
    30    11    12 2   
    31    11    15 1   
    32    12    16 1   
    33    13    14 ar  
    34    15    17 1   
    35    15    26 1   
    36    16    17 ar  
    37    16    20 ar  
    38    17    21 ar  
    39    18    22 2   
    40    18    23 2   
    41    18    27 1   
    42    18    28 1   
    43    19    41 1   
    44    19    42 1   
    45    20    25 ar  
    46    20    43 1   
    47    21    44 1   
    48    24    30 ar  
    49    25    29 1   
    50    26    45 1   
    51    26    46 1   
    52    27    47 1   
    53    27    48 1   
    54    28    49 1   
    55    28    50 1   
    56    28    51 1   
    57    30    52 1   
@<TRIPOS>SUBSTRUCTURE
     1 5NM         1 TEMP              0 ****  ****    0 ROOT
