@<TRIPOS>MOLECULE
5NM
   53    57     1     0     0
SMALL
bcc


@<TRIPOS>ATOM
      1 C10         -1.5010     0.2030    -1.7160 c3         1 5NM       0.103700
      2 C13         -5.1240     0.8360     1.5510 cx         1 5NM       0.047700
      3 C15         -6.4060     1.5990     1.4170 cx         1 5NM      -0.122900
      4 C22         -3.7580     3.6160     0.9360 ca         1 5NM      -0.250300
      5 C24         -1.7130     3.2690    -0.9010 ca         1 5NM       0.424200
      6 C26          0.2090    -2.8150    -0.0000 c3         1 5NM      -0.072400
      7 C28          4.0580     0.2250     0.4480 ca         1 5NM      -0.085000
      8 C01         -3.3880     0.1680    -0.0820 c          1 5NM       0.805500
      9 N02         -2.4010     0.8330    -0.7780 n          1 5NM      -0.360000
     10 N03         -4.0590     1.1290     0.6480 n          1 5NM      -0.330000
     11 C04         -0.0670     0.3170    -1.3030 cc         1 5NM       0.388800
     12 N05          0.7820     1.1150    -1.8890 nd         1 5NM      -0.563100
     13 C06         -2.4490     2.1810    -0.4800 ca         1 5NM      -0.127700
     14 C07         -3.4890     2.3580     0.4360 ca         1 5NM       0.039600
     15 N08          0.4770    -0.3810    -0.2650 na         1 5NM      -0.134300
     16 C09          1.9640     0.9400    -1.2160 ca         1 5NM       0.065400
     17 C11          1.7930    -0.0010    -0.1910 ca         1 5NM      -0.068200
     18 S12         -0.1390    -5.5060     0.2130 s6         1 5NM       1.006000
     19 C14         -6.3480     0.1600     1.0260 cx         1 5NM      -0.122900
     20 C16          3.2030     1.5450    -1.4210 ca         1 5NM      -0.033000
     21 C18          2.8300    -0.3760     0.6540 ca         1 5NM      -0.129000
     22 O19         -0.5710    -5.6160    -1.1810 o          1 5NM      -0.584300
     23 O20          1.2690    -5.7680     0.5140 o          1 5NM      -0.584300
     24 N21         -1.9770     4.4880    -0.4320 nb         1 5NM      -0.663000
     25 C23          4.2280     1.1680    -0.5760 ca         1 5NM      -0.040900
     26 C25         -0.1370    -1.4250     0.5250 c3         1 5NM       0.048300
     27 C27         -0.5490    -3.8640     0.7990 c3         1 5NM      -0.195600
     28 C29         -1.1470    -6.5790     1.2090 c3         1 5NM      -0.225300
     29 BR3          5.9360     1.9500    -0.8030 br         1 5NM      -0.097100
     30 C31         -2.9550     4.6450     0.4530 ca         1 5NM       0.403200
     31 H1          -1.8040    -0.8390    -1.8230 h1         1 5NM       0.090700
     32 H2          -1.6020     0.6690    -2.6960 h1         1 5NM       0.090700
     33 H3          -4.7970     0.5800     2.5530 h1         1 5NM       0.092700
     34 H4          -6.9070     1.8750     2.3350 hc         1 5NM       0.084950
     35 H5          -6.4830     2.3320     0.6240 hc         1 5NM       0.084950
     36 H6          -4.5390     3.8060     1.6570 ha         1 5NM       0.152000
     37 H7          -0.9040     3.1700    -1.6150 h4         1 5NM       0.050100
     38 H8          -0.0630    -2.8830    -1.0550 hc         1 5NM       0.074700
     39 H9           1.2850    -2.9840     0.0760 hc         1 5NM       0.074700
     40 H10          4.8890    -0.0410     1.0870 ha         1 5NM       0.149000
     41 H11         -6.3810    -0.0730    -0.0300 hc         1 5NM       0.084950
     42 H12         -6.8150    -0.5770     1.6640 hc         1 5NM       0.084950
     43 H13          3.3390     2.2740    -2.2090 ha         1 5NM       0.165000
     44 H14          2.7020    -1.1040     1.4440 ha         1 5NM       0.142000
     45 H15         -1.2140    -1.2850     0.5200 h1         1 5NM       0.071200
     46 H16          0.1890    -1.3090     1.5590 h1         1 5NM       0.071200
     47 H17         -0.2980    -3.8280     1.8610 h1         1 5NM       0.099700
     48 H18         -1.6290    -3.7460     0.6940 h1         1 5NM       0.099700
     49 H19         -0.9070    -6.4330     2.2590 h1         1 5NM       0.105700
     50 H20         -2.1970    -6.3640     1.0230 h1         1 5NM       0.105700
     51 H21         -0.9180    -7.6010     0.9130 h1         1 5NM       0.105700
     52 H22         -3.1220     5.6550     0.8090 h4         1 5NM       0.023100
     53 O17         -3.6130    -1.0250    -0.0990 o          1 5NM      -0.642500
@<TRIPOS>BOND
     1     1     9 1   
     2     1    11 1   
     3     1    31 1   
     4     1    32 1   
     5     2     3 1   
     6     2    10 1   
     7     2    19 1   
     8     2    33 1   
     9     3    19 1   
    10     3    34 1   
    11     3    35 1   
    12     4    14 ar  
    13     4    30 ar  
    14     4    36 1   
    15     5    13 ar  
    16     5    24 ar  
    17     5    37 1   
    18     6    26 1   
    19     6    27 1   
    20     6    38 1   
    21     6    39 1   
    22     7    21 ar  
    23     7    25 ar  
    24     7    40 1   
    25     8     9 1   
    26     8    10 1   
    27     8    53 2   
    28     9    13 1   
    29    10    14 1   
    30    11    12 2   
    31    11    15 1   
    32    12    16 1   
    33    13    14 ar  
    34    15    17 1   
    35    15    26 1   
    36    16    17 ar  
    37    16    20 ar  
    38    17    21 ar  
    39    18    22 2   
    40    18    23 2   
    41    18    27 1   
    42    18    28 1   
    43    19    41 1   
    44    19    42 1   
    45    20    25 ar  
    46    20    43 1   
    47    21    44 1   
    48    24    30 ar  
    49    25    29 1   
    50    26    45 1   
    51    26    46 1   
    52    27    47 1   
    53    27    48 1   
    54    28    49 1   
    55    28    50 1   
    56    28    51 1   
    57    30    52 1   
@<TRIPOS>SUBSTRUCTURE
     1 5NM         1 TEMP              0 ****  ****    0 ROOT
