@<TRIPOS>MOLECULE
5NN
   30    32     1     0     0
SMALL
No Charge or Current Charge


@<TRIPOS>ATOM
      1 CAN         -3.0800    -0.9050    -0.5990 ca         1 5NN      -0.092500
      2 CAR         -4.4660    -0.6730    -0.6530 ca         1 5NN      -0.109000
      3 CAQ         -5.0120     0.4690    -0.0450 ca         1 5NN      -0.097000
      4 CAP         -4.1720     1.3780     0.6190 ca         1 5NN      -0.109000
      5 CAO         -2.7860     1.1470     0.6720 ca         1 5NN      -0.092500
      6 CAL         -2.2260     0.0050     0.0600 ca         1 5NN      -0.069800
      7 CAI         -0.7840    -0.2480     0.1180 cc         1 5NN       0.107400
      8 CAH          0.0960     0.7860    -0.1030 cd         1 5NN      -0.239200
      9 CAE          1.5540     0.5560    -0.0650 ca         1 5NN      -0.032800
     10 CAD          2.4970     1.5970    -0.2790 ca         1 5NN       0.274000
     11 NAM          2.1120     2.8960    -0.5240 nv         1 5NN      -1.064000
     12 CAC          3.8710     1.3110    -0.2390 ca         1 5NN      -0.156000
     13 CAB          4.3210     0.0060     0.0140 ca         1 5NN      -0.092000
     14 CAA          3.3950    -1.0250     0.2310 ca         1 5NN      -0.087000
     15 CAF          2.0090    -0.7600     0.1930 ca         1 5NN      -0.132600
     16 CAG          1.0110    -1.8730     0.4250 c          1 5NN       0.570600
     17 OAK          1.3400    -3.0290     0.6540 o          1 5NN      -0.558000
     18 NAJ         -0.3130    -1.5200     0.3660 ns         1 5NN      -0.383100
     19 HAN         -2.6700    -1.7890    -1.0820 ha         1 5NN       0.117500
     20 HAR         -5.1150    -1.3780    -1.1670 ha         1 5NN       0.117500
     21 HAQ         -6.0850     0.6480    -0.0860 ha         1 5NN       0.117000
     22 HAP         -4.5950     2.2600     1.0950 ha         1 5NN       0.117500
     23 HAO         -2.1510     1.8530     1.2020 ha         1 5NN       0.117500
     24 HAH         -0.2990     1.7690    -0.3330 ha         1 5NN       0.197000
     25 HAJ         -0.9710    -2.2700     0.5300 hn         1 5NN       0.326500
     26 HAM1         1.1450     3.1730    -0.3770 hn         1 5NN       0.443500
     27 HAM2         2.8120     3.6360    -0.5360 hn         1 5NN       0.443500
     28 HAC          4.5970     2.1020    -0.4040 ha         1 5NN       0.111000
     29 HAB          5.3870    -0.2060     0.0440 ha         1 5NN       0.116000
     30 HAA          3.7570    -2.0330     0.4270 ha         1 5NN       0.138000
@<TRIPOS>BOND
     1     1     2 ar  
     2     1     6 ar  
     3     1    19 1   
     4     2     3 ar  
     5     2    20 1   
     6     3     4 ar  
     7     3    21 1   
     8     4     5 ar  
     9     4    22 1   
    10     5     6 ar  
    11     5    23 1   
    12     6     7 1   
    13     7     8 2   
    14     7    18 1   
    15     8     9 1   
    16     8    24 1   
    17     9    10 ar  
    18     9    15 ar  
    19    10    11 1   
    20    10    12 ar  
    21    11    26 1   
    22    11    27 1   
    23    12    13 ar  
    24    12    28 1   
    25    13    14 ar  
    26    13    29 1   
    27    14    15 ar  
    28    14    30 1   
    29    15    16 1   
    30    16    17 2   
    31    16    18 1   
    32    18    25 1   
@<TRIPOS>SUBSTRUCTURE
     1 5NN         1 TEMP              0 ****  ****    0 ROOT
