@<TRIPOS>MOLECULE
5NN
   30    32     1     0     0
SMALL
abcg2


@<TRIPOS>ATOM
      1 CAN         -3.0520    -0.9680    -0.4670 ca         1 5NN      -0.092500
      2 CAR         -4.4250    -0.7780    -0.5280 ca         1 5NN      -0.109000
      3 CAQ         -4.9880     0.4060    -0.0730 ca         1 5NN      -0.097000
      4 CAP         -4.1690     1.4010     0.4470 ca         1 5NN      -0.109000
      5 CAO         -2.7980     1.2120     0.5130 ca         1 5NN      -0.092500
      6 CAL         -2.2210     0.0270     0.0530 ca         1 5NN      -0.069800
      7 CAI         -0.7630    -0.1560     0.1110 cc         1 5NN       0.107400
      8 CAH          0.1270     0.8440    -0.0860 cd         1 5NN      -0.239200
      9 CAE          1.5320     0.5780    -0.0470 ca         1 5NN      -0.032800
     10 CAD          2.4930     1.6100    -0.2220 ca         1 5NN       0.274000
     11 NAM          2.0870     2.9130    -0.4280 nv         1 5NN      -1.064000
     12 CAC          3.8390     1.2700    -0.2380 ca         1 5NN      -0.156000
     13 CAB          4.2580    -0.0490    -0.0720 ca         1 5NN      -0.092000
     14 CAA          3.3400    -1.0560     0.1320 ca         1 5NN      -0.087000
     15 CAF          1.9790    -0.7420     0.1450 ca         1 5NN      -0.132600
     16 CAG          1.0090    -1.8150     0.3690 c          1 5NN       0.570600
     17 OAK          1.3100    -2.9830     0.5790 o          1 5NN      -0.558000
     18 NAJ         -0.3030    -1.4270     0.3480 ns         1 5NN      -0.383100
     19 HAN         -2.6350    -1.8900    -0.8510 ha         1 5NN       0.117500
     20 HAR         -5.0530    -1.5580    -0.9390 ha         1 5NN       0.117500
     21 HAQ         -6.0590     0.5520    -0.1200 ha         1 5NN       0.117000
     22 HAP         -4.6000     2.3220     0.8150 ha         1 5NN       0.117500
     23 HAO         -2.1740     1.9840     0.9460 ha         1 5NN       0.117500
     24 HAH         -0.2450     1.8280    -0.3330 ha         1 5NN       0.197000
     25 HAJ         -0.9760    -2.1540     0.5530 hn         1 5NN       0.326500
     26 HAM1         1.2840     3.2160     0.1000 hn         1 5NN       0.443500
     27 HAM2         2.8260     3.5950    -0.3660 hn         1 5NN       0.443500
     28 HAC          4.5780     2.0510    -0.3730 ha         1 5NN       0.111000
     29 HAB          5.3160    -0.2720    -0.0900 ha         1 5NN       0.116000
     30 HAA          3.6620    -2.0780     0.2800 ha         1 5NN       0.138000
@<TRIPOS>BOND
     1     1     2 ar  
     2     1     6 ar  
     3     1    19 1   
     4     2     3 ar  
     5     2    20 1   
     6     3     4 ar  
     7     3    21 1   
     8     4     5 ar  
     9     4    22 1   
    10     5     6 ar  
    11     5    23 1   
    12     6     7 1   
    13     7     8 2   
    14     7    18 1   
    15     8     9 1   
    16     8    24 1   
    17     9    10 ar  
    18     9    15 ar  
    19    10    11 1   
    20    10    12 ar  
    21    11    26 1   
    22    11    27 1   
    23    12    13 ar  
    24    12    28 1   
    25    13    14 ar  
    26    13    29 1   
    27    14    15 ar  
    28    14    30 1   
    29    15    16 1   
    30    16    17 2   
    31    16    18 1   
    32    18    25 1   
@<TRIPOS>SUBSTRUCTURE
     1 5NN         1 TEMP              0 ****  ****    0 ROOT
