@<TRIPOS>MOLECULE
5NO
   51    55     1     0     0
SMALL
No Charge or Current Charge


@<TRIPOS>ATOM
      1 C10          2.3320    -2.9010     0.1870 ca         1 5NO      -0.164000
      2 C15         -0.8710     1.6780    -1.4600 cc         1 5NO       0.392800
      3 C17         -1.9880     3.4480    -0.9120 ca         1 5NO       0.069400
      4 C20         -3.6230     4.1200     1.2530 ca         1 5NO      -0.092000
      5 C21         -3.0220     2.8450     1.2030 ca         1 5NO      -0.117000
      6 C22         -2.2040     2.5520     0.0990 ca         1 5NO      -0.075200
      7 C26         -2.1690    -2.2240     0.9400 c3         1 5NO      -0.084400
      8 C01          4.8040     0.6880     0.9430 cx         1 5NO      -0.124400
      9 C02          4.9130    -0.8070     1.1170 cx         1 5NO      -0.124400
     10 C03          3.5580    -0.1390     1.1600 cx         1 5NO       0.049700
     11 N04          2.5530    -0.3400     0.1250 n          1 5NO      -0.270000
     12 C05          2.0050    -1.6060    -0.2210 ca         1 5NO       0.046600
     13 C06          1.0300    -1.4000    -1.1770 ca         1 5NO      -0.059400
     14 C07          0.4630    -2.5010    -1.8420 ca         1 5NO       0.335900
     15 N08          0.7540    -3.7740    -1.4630 nb         1 5NO      -0.664000
     16 C09          1.6560    -3.9600    -0.4570 ca         1 5NO       0.335900
     17 N11          1.0160    -0.0010    -1.4620 n          1 5NO      -0.301000
     18 C12          1.9380     0.6670    -0.6390 c          1 5NO       0.593000
     19 O13          2.1370     1.8710    -0.5800 o          1 5NO      -0.519000
     20 C14         -0.0320     0.6890    -2.2490 c3         1 5NO       0.115700
     21 N16         -1.1620     2.9210    -1.9000 nd         1 5NO      -0.551100
     22 C18         -2.5770     4.7200    -0.8820 ca         1 5NO      -0.043000
     23 C19         -3.4010     5.0550     0.2150 ca         1 5NO      -0.137000
     24 N23         -1.5010     1.4260    -0.2280 na         1 5NO      -0.170600
     25 C25         -2.3070    -0.9420     0.0890 c3         1 5NO      -0.098400
     26 C27         -2.9930    -3.4050     0.3880 c3         1 5NO       0.167600
     27 O28         -2.8380    -4.5410     1.2430 oh         1 5NO      -0.659000
     28 H1           3.0830    -3.0960     0.9470 ha         1 5NO       0.137000
     29 H2          -4.2630     4.3850     2.0930 ha         1 5NO       0.111000
     30 H3          -3.1970     2.1240     1.9970 ha         1 5NO       0.116000
     31 H4          -0.4100    -0.1000     0.7250 h1         1 5NO       0.064200
     32 H5          -1.7890     0.4760     1.6390 h1         1 5NO       0.064200
     33 H6          -1.1130    -2.5170     0.9860 hc         1 5NO       0.057200
     34 H7          -2.4900    -2.0120     1.9670 hc         1 5NO       0.057200
     35 H8           5.1350     1.3220     1.7620 hc         1 5NO       0.084700
     36 H9           4.9790     1.0950    -0.0490 hc         1 5NO       0.084700
     37 H10          5.1600    -1.4010     0.2410 hc         1 5NO       0.084700
     38 H11          5.3190    -1.1830     2.0530 hc         1 5NO       0.084700
     39 H12          3.0510    -0.0630     2.1220 h1         1 5NO       0.094700
     40 H13         -0.2330    -2.3740    -2.6710 h4         1 5NO       0.024100
     41 H14          1.8680    -4.9930    -0.1840 h4         1 5NO       0.024100
     42 H15         -0.7040    -0.0530    -2.6940 h1         1 5NO       0.080200
     43 H16          0.4560     1.2240    -3.0730 h1         1 5NO       0.080200
     44 H17         -2.4040     5.4300    -1.6880 ha         1 5NO       0.129000
     45 H18         -3.8690     6.0360     0.2590 ha         1 5NO       0.114000
     46 H19         -3.3590    -0.6320     0.0640 hc         1 5NO       0.048700
     47 H20         -2.0160    -1.1640    -0.9440 hc         1 5NO       0.048700
     48 H21         -4.0500    -3.1140     0.3310 h1         1 5NO       0.016700
     49 H22         -2.6500    -3.6420    -0.6280 h1         1 5NO       0.016700
     50 H23         -3.3680    -5.2690     0.8480 ho         1 5NO       0.445000
     51 C24         -1.4520     0.2230     0.6280 c3         1 5NO       0.076600
@<TRIPOS>BOND
     1     1    12 ar  
     2     1    16 ar  
     3     1    28 1   
     4     2    20 1   
     5     2    21 2   
     6     2    24 1   
     7     3     6 ar  
     8     3    21 1   
     9     3    22 ar  
    10     4     5 ar  
    11     4    23 ar  
    12     4    29 1   
    13     5     6 ar  
    14     5    30 1   
    15     6    24 1   
    16     7    25 1   
    17     7    26 1   
    18     7    33 1   
    19     7    34 1   
    20     8     9 1   
    21     8    10 1   
    22     8    35 1   
    23     8    36 1   
    24     9    10 1   
    25     9    37 1   
    26     9    38 1   
    27    10    11 1   
    28    10    39 1   
    29    11    12 1   
    30    11    18 1   
    31    12    13 ar  
    32    13    14 ar  
    33    13    17 1   
    34    14    15 ar  
    35    14    40 1   
    36    15    16 ar  
    37    16    41 1   
    38    17    18 1   
    39    17    20 1   
    40    18    19 2   
    41    20    42 1   
    42    20    43 1   
    43    22    23 ar  
    44    22    44 1   
    45    23    45 1   
    46    24    51 1   
    47    25    46 1   
    48    25    47 1   
    49    25    51 1   
    50    26    27 1   
    51    26    48 1   
    52    26    49 1   
    53    27    50 1   
    54    31    51 1   
    55    32    51 1   
@<TRIPOS>SUBSTRUCTURE
     1 5NO         1 TEMP              0 ****  ****    0 ROOT
