@<TRIPOS>MOLECULE
5NO
   51    55     1     0     0
SMALL
abcg2


@<TRIPOS>ATOM
      1 C10          2.7390    -2.7280     0.4620 ca         1 5NO      -0.164000
      2 C15         -0.8070     1.5380    -1.2260 cc         1 5NO       0.392800
      3 C17         -1.8840     3.3120    -0.7550 ca         1 5NO       0.069400
      4 C20         -3.6370     3.9300     1.2930 ca         1 5NO      -0.092000
      5 C21         -3.0950     2.6570     1.2700 ca         1 5NO      -0.117000
      6 C22         -2.2150     2.3710     0.2310 ca         1 5NO      -0.075200
      7 C26         -2.7120    -2.2940     0.6840 c3         1 5NO      -0.084400
      8 C01          5.0900     0.9000     0.3600 cx         1 5NO      -0.124400
      9 C02          5.2800    -0.5320     0.7380 cx         1 5NO      -0.124400
     10 C03          3.9620     0.1380     0.9780 cx         1 5NO       0.049700
     11 N04          2.8530    -0.2270     0.1600 n          1 5NO      -0.270000
     12 C05          2.3560    -1.4930    -0.0200 ca         1 5NO       0.046600
     13 C06          1.2450    -1.3900    -0.8620 ca         1 5NO      -0.059400
     14 C07          0.5540    -2.5270    -1.2240 ca         1 5NO       0.335900
     15 N08          0.9230    -3.7230    -0.7670 nb         1 5NO      -0.664000
     16 C09          1.9690    -3.8100     0.0450 ca         1 5NO       0.335900
     17 N11          1.0780    -0.0480    -1.1410 n          1 5NO      -0.301000
     18 C12          2.0600     0.6850    -0.5120 c          1 5NO       0.593000
     19 O13          2.1880     1.8900    -0.5430 o          1 5NO      -0.519000
     20 C14          0.0560     0.5610    -1.9600 c3         1 5NO       0.115700
     21 N16         -1.0010     2.7560    -1.6470 nd         1 5NO      -0.551100
     22 C18         -2.4380     4.5910    -0.7150 ca         1 5NO      -0.043000
     23 C19         -3.3130     4.8840     0.3150 ca         1 5NO      -0.137000
     24 N23         -1.5040     1.2410    -0.0910 na         1 5NO      -0.170600
     25 C25         -2.5910    -0.9890    -0.0910 c3         1 5NO      -0.098400
     26 C27         -3.6200    -3.2820    -0.0200 c3         1 5NO       0.167600
     27 O28         -3.7240    -4.4490     0.7660 oh         1 5NO      -0.659000
     28 H1           3.5800    -2.8630     1.1270 ha         1 5NO       0.137000
     29 H2          -4.3270     4.1950     2.0830 ha         1 5NO       0.111000
     30 H3          -3.3520     1.9260     2.0270 ha         1 5NO       0.116000
     31 H4          -0.6390    -0.4870     0.6910 h1         1 5NO       0.064200
     32 H5          -1.9580     0.1730     1.6090 h1         1 5NO       0.064200
     33 H6          -1.7210    -2.7430     0.8140 hc         1 5NO       0.057200
     34 H7          -3.1010    -2.0900     1.6870 hc         1 5NO       0.057200
     35 H8           5.5520     1.6680     0.9650 hc         1 5NO       0.084700
     36 H9           5.0240     1.1340    -0.6940 hc         1 5NO       0.084700
     37 H10          5.3460    -1.2550    -0.0650 hc         1 5NO       0.084700
     38 H11          5.8730    -0.7730     1.6100 hc         1 5NO       0.084700
     39 H12          3.6990     0.3700     2.0030 h1         1 5NO       0.094700
     40 H13         -0.2980    -2.4940    -1.8930 h4         1 5NO       0.024100
     41 H14          2.2240    -4.8040     0.3940 h4         1 5NO       0.024100
     42 H15         -0.5530    -0.2370    -2.3850 h1         1 5NO       0.080200
     43 H16          0.5080     1.0890    -2.7990 h1         1 5NO       0.080200
     44 H17         -2.1890     5.3280    -1.4670 ha         1 5NO       0.129000
     45 H18         -3.7600     5.8680     0.3720 ha         1 5NO       0.114000
     46 H19         -3.5710    -0.5100    -0.1770 hc         1 5NO       0.048700
     47 H20         -2.2600    -1.1940    -1.1140 hc         1 5NO       0.048700
     48 H21         -4.6030    -2.8190    -0.1820 h1         1 5NO       0.016700
     49 H22         -3.2080    -3.5020    -1.0140 h1         1 5NO       0.016700
     50 H23         -4.2990    -5.0690     0.3090 ho         1 5NO       0.445000
     51 C24         -1.6230    -0.0330     0.5920 c3         1 5NO       0.076600
@<TRIPOS>BOND
     1     1    12 ar  
     2     1    16 ar  
     3     1    28 1   
     4     2    20 1   
     5     2    21 2   
     6     2    24 1   
     7     3     6 ar  
     8     3    21 1   
     9     3    22 ar  
    10     4     5 ar  
    11     4    23 ar  
    12     4    29 1   
    13     5     6 ar  
    14     5    30 1   
    15     6    24 1   
    16     7    25 1   
    17     7    26 1   
    18     7    33 1   
    19     7    34 1   
    20     8     9 1   
    21     8    10 1   
    22     8    35 1   
    23     8    36 1   
    24     9    10 1   
    25     9    37 1   
    26     9    38 1   
    27    10    11 1   
    28    10    39 1   
    29    11    12 1   
    30    11    18 1   
    31    12    13 ar  
    32    13    14 ar  
    33    13    17 1   
    34    14    15 ar  
    35    14    40 1   
    36    15    16 ar  
    37    16    41 1   
    38    17    18 1   
    39    17    20 1   
    40    18    19 2   
    41    20    42 1   
    42    20    43 1   
    43    22    23 ar  
    44    22    44 1   
    45    23    45 1   
    46    24    51 1   
    47    25    46 1   
    48    25    47 1   
    49    25    51 1   
    50    26    27 1   
    51    26    48 1   
    52    26    49 1   
    53    27    50 1   
    54    31    51 1   
    55    32    51 1   
@<TRIPOS>SUBSTRUCTURE
     1 5NO         1 TEMP              0 ****  ****    0 ROOT
