@<TRIPOS>MOLECULE
5NP
   43    47     1     0     0
SMALL
bcc


@<TRIPOS>ATOM
      1 C10          1.5460    -0.1060    -1.8140 c5         1 5NP       0.076000
      2 C13         -0.4220    -2.6520    -1.5160 c          1 5NP       0.716100
      3 C15          1.6080     0.6150     0.5970 c          1 5NP       0.698700
      4 C17         -1.1640     1.7660    -0.4640 ca         1 5NP      -0.092500
      5 C20          2.9810     1.1590     0.3940 ca         1 5NP      -0.270900
      6 C21         -0.6770    -4.1200     1.9620 ca         1 5NP       0.404200
      7 C22         -2.1880     2.6990    -0.3810 ca         1 5NP      -0.123000
      8 C24         -3.4510     2.2830     0.0020 ca         1 5NP       0.039400
      9 C26          3.2270     2.4860     0.7350 ca         1 5NP       0.445200
     10 C28          5.4360     2.3040     0.2300 ca         1 5NP       0.420200
     11 CL1         -4.7350     3.4400     0.1150 cl         1 5NP      -0.105400
     12 O02         -0.3500    -3.4340    -2.4360 o          1 5NP      -0.573500
     13 O03          1.0250     0.7850     1.6550 o          1 5NP      -0.576100
     14 N04         -0.4280    -1.2880    -1.6100 n          1 5NP      -0.453800
     15 N05          1.0450    -0.0450    -0.4350 n          1 5NP      -0.499800
     16 N06         -0.6150    -2.9920     2.6630 nb         1 5NP      -0.658000
     17 N07          4.4200     3.0540     0.6440 nb         1 5NP      -0.665000
     18 C08         -0.2980    -0.6200    -0.3210 c5         1 5NP       0.373400
     19 C09          0.3100    -0.5400    -2.6020 c5         1 5NP       0.071000
     20 C11         -0.4120    -1.7780     0.6470 ca         1 5NP      -0.206600
     21 C12         -1.3880     0.4290    -0.1610 ca         1 5NP      -0.077300
     22 C14         -0.5080    -2.9560    -0.0680 ca         1 5NP      -0.129600
     23 C16         -0.4930    -1.8310     2.0280 ca         1 5NP       0.452200
     24 C18         -2.6690     0.0350     0.2120 ca         1 5NP      -0.092500
     25 C19         -0.6350    -4.1700     0.5750 ca         1 5NP      -0.186300
     26 C23         -3.7030     0.9530     0.2980 ca         1 5NP      -0.123000
     27 C25          4.0510     0.3840    -0.0350 ca         1 5NP      -0.063000
     28 C27          5.3050     0.9670    -0.1120 ca         1 5NP      -0.254300
     29 H1           1.9300     0.8590    -2.1400 h1         1 5NP       0.060200
     30 H2           2.3340    -0.8520    -1.9140 h1         1 5NP       0.060200
     31 H3          -0.1870     2.1130    -0.7740 ha         1 5NP       0.137500
     32 H4          -0.7760    -5.0350     2.5340 h4         1 5NP       0.027100
     33 H5          -1.9890     3.7380    -0.6040 ha         1 5NP       0.150000
     34 H6           2.4160     3.1160     1.0870 h4         1 5NP       0.035100
     35 H7           6.4030     2.7890     0.1740 h4         1 5NP       0.024100
     36 H8          -0.2750     0.3130    -2.9470 h1         1 5NP       0.081200
     37 H9           0.5530    -1.1610    -3.4600 h1         1 5NP       0.081200
     38 H10         -0.4640    -0.9390     2.6390 h4         1 5NP       0.056100
     39 H11         -2.8830    -1.0000     0.4440 ha         1 5NP       0.137500
     40 H12         -0.7100    -5.1070     0.0410 ha         1 5NP       0.163000
     41 H13         -4.6920     0.6290     0.5930 ha         1 5NP       0.150000
     42 H14          3.9230    -0.6620    -0.2820 ha         1 5NP       0.143000
     43 H15          6.1670     0.3980    -0.4290 ha         1 5NP       0.148000
@<TRIPOS>BOND
     1     1    15 1   
     2     1    19 1   
     3     1    29 1   
     4     1    30 1   
     5     2    12 2   
     6     2    14 1   
     7     2    22 1   
     8     3     5 1   
     9     3    13 2   
    10     3    15 1   
    11     4     7 ar  
    12     4    21 ar  
    13     4    31 1   
    14     5     9 ar  
    15     5    27 ar  
    16     6    16 ar  
    17     6    25 ar  
    18     6    32 1   
    19     7     8 ar  
    20     7    33 1   
    21     8    11 1   
    22     8    26 ar  
    23     9    17 ar  
    24     9    34 1   
    25    10    17 ar  
    26    10    28 ar  
    27    10    35 1   
    28    14    18 1   
    29    14    19 1   
    30    15    18 1   
    31    16    23 ar  
    32    18    20 1   
    33    18    21 1   
    34    19    36 1   
    35    19    37 1   
    36    20    22 ar  
    37    20    23 ar  
    38    21    24 ar  
    39    22    25 ar  
    40    23    38 1   
    41    24    26 ar  
    42    24    39 1   
    43    25    40 1   
    44    26    41 1   
    45    27    28 ar  
    46    27    42 1   
    47    28    43 1   
@<TRIPOS>SUBSTRUCTURE
     1 5NP         1 TEMP              0 ****  ****    0 ROOT
