@<TRIPOS>MOLECULE
5NP
   43    47     1     0     0
SMALL
No Charge or Current Charge


@<TRIPOS>ATOM
      1 C10          1.4980    -0.0520    -1.8360 c5         1 5NP       0.076000
      2 C13         -0.5010    -2.6860    -1.5540 c          1 5NP       0.573600
      3 C15          1.5530     0.7930     0.5850 c          1 5NP       0.631700
      4 C17         -1.3080     1.7560    -0.7370 ca         1 5NP      -0.074500
      5 C20          2.9860     1.2160     0.4770 ca         1 5NP      -0.205600
      6 C21         -0.5140    -4.1730     1.9730 ca         1 5NP       0.338900
      7 C22         -2.3510     2.6920    -0.6270 ca         1 5NP      -0.105000
      8 C24         -3.5610     2.3280    -0.0220 ca         1 5NP       0.131000
      9 C26          3.3420     2.4820     0.9730 ca         1 5NP       0.379900
     10 C28          5.5730     2.1730     0.4220 ca         1 5NP       0.354900
     11 Cl1         -4.8660     3.4990     0.1130 cl         1 5NP      -0.197000
     12 O02         -0.4410    -3.4770    -2.4840 o          1 5NP      -0.498000
     13 O03          0.8980     1.1050     1.5680 o          1 5NP      -0.576100
     14 N04         -0.5030    -1.2890    -1.6420 n          1 5NP      -0.386800
     15 N05          1.0090    -0.0320    -0.4200 n          1 5NP      -0.432800
     16 N06         -0.4060    -3.0120     2.6790 nb         1 5NP      -0.658000
     17 N07          4.6070     2.9640     0.9410 nb         1 5NP      -0.665000
     18 C08         -0.3310    -0.6100    -0.3540 c5         1 5NP       0.373400
     19 C09          0.2760    -0.5850    -2.6740 c5         1 5NP       0.071000
     20 C11         -0.3690    -1.8100     0.5860 ca         1 5NP      -0.141300
     21 C12         -1.4560     0.4400    -0.2340 ca         1 5NP      -0.077300
     22 C14         -0.5040    -2.9950    -0.1140 ca         1 5NP      -0.129600
     23 C16         -0.3340    -1.8400     1.9890 ca         1 5NP       0.386900
     24 C18         -2.6910     0.0890     0.3590 ca         1 5NP      -0.074500
     25 C19         -0.5670    -4.2190     0.5640 ca         1 5NP      -0.103000
     26 C23         -3.7330     1.0260     0.4680 ca         1 5NP      -0.105000
     27 C25          4.0040     0.3850    -0.0370 ca         1 5NP      -0.045000
     28 C27          5.3160     0.8830    -0.0670 ca         1 5NP      -0.171000
     29 H1           1.8240     0.9390    -2.1790 h1         1 5NP       0.060200
     30 H2           2.3400    -0.7460    -1.9450 h1         1 5NP       0.060200
     31 H3          -0.3830     2.0650    -1.2170 ha         1 5NP       0.119500
     32 H4          -0.5630    -5.0910     2.5570 h4         1 5NP       0.027100
     33 H5          -2.2210     3.7000    -1.0140 ha         1 5NP       0.132000
     34 H6           2.5900     3.1470     1.3960 h4         1 5NP       0.035100
     35 H7           6.5830     2.5810     0.4110 h4         1 5NP       0.024100
     36 H8          -0.3080     0.2410    -3.1000 h1         1 5NP       0.081200
     37 H9           0.5950    -1.2410    -3.4950 h1         1 5NP       0.081200
     38 H10         -0.2640    -0.9280     2.5790 h4         1 5NP       0.056100
     39 H11         -2.8560    -0.9180     0.7350 ha         1 5NP       0.119500
     40 H12         -0.6510    -5.1650     0.0370 ha         1 5NP       0.145000
     41 H13         -4.6760     0.7410     0.9290 ha         1 5NP       0.132000
     42 H14          3.8010    -0.6300    -0.3700 ha         1 5NP       0.125000
     43 H15          6.1310     0.2770    -0.4540 ha         1 5NP       0.130000
@<TRIPOS>BOND
     1     1    15 1   
     2     1    19 1   
     3     1    29 1   
     4     1    30 1   
     5     2    12 2   
     6     2    14 1   
     7     2    22 1   
     8     3     5 1   
     9     3    13 2   
    10     3    15 1   
    11     4     7 ar  
    12     4    21 ar  
    13     4    31 1   
    14     5     9 ar  
    15     5    27 ar  
    16     6    16 ar  
    17     6    25 ar  
    18     6    32 1   
    19     7     8 ar  
    20     7    33 1   
    21     8    11 1   
    22     8    26 ar  
    23     9    17 ar  
    24     9    34 1   
    25    10    17 ar  
    26    10    28 ar  
    27    10    35 1   
    28    14    18 1   
    29    14    19 1   
    30    15    18 1   
    31    16    23 ar  
    32    18    20 1   
    33    18    21 1   
    34    19    36 1   
    35    19    37 1   
    36    20    22 ar  
    37    20    23 ar  
    38    21    24 ar  
    39    22    25 ar  
    40    23    38 1   
    41    24    26 ar  
    42    24    39 1   
    43    25    40 1   
    44    26    41 1   
    45    27    28 ar  
    46    27    42 1   
    47    28    43 1   
@<TRIPOS>SUBSTRUCTURE
     1 5NP         1 TEMP              0 ****  ****    0 ROOT
