@<TRIPOS>MOLECULE
5NR
   38    39     1     0     0
SMALL
No Charge or Current Charge


@<TRIPOS>ATOM
      1 C4           4.5140     0.3420    -0.8070 ca         1 5NR      -0.109000
      2 C14         -3.4610    -0.0440     0.2520 c3         1 5NR       0.169800
      3 C5           4.7940    -1.0130    -0.5630 ca         1 5NR      -0.113000
      4 C6           3.9390    -1.7690     0.2560 ca         1 5NR      -0.109000
      5 C7           1.2850     0.8400     1.2070 c3         1 5NR      -0.028100
      6 C8           0.1340     1.0990     0.1890 c6         1 5NR      -0.055700
      7 C9          -1.0440     1.8700     0.8450 c6         1 5NR      -0.110900
      8 C10         -2.2110     2.0740    -0.1570 c6         1 5NR       0.171300
      9 C12         -1.5760     0.0710    -1.4160 c6         1 5NR       0.171300
     10 C13         -0.3870    -0.2130    -0.4610 c6         1 5NR      -0.110900
     11 C3           3.3800     0.9410    -0.2320 ca         1 5NR      -0.108500
     12 C1           2.8040    -1.1700     0.8310 ca         1 5NR      -0.108500
     13 C2           2.5180     0.1880     0.5890 ca         1 5NR      -0.075300
     14 N11         -2.6940     0.7830    -0.7270 n3         1 5NR      -0.730600
     15 C15         -4.1790    -1.2900    -0.3500 c3         1 5NR       0.144800
     16 N16         -5.0440    -2.0020     0.6270 n8         1 5NR      -1.000200
     17 H1           5.1760     0.9280    -1.4410 ha         1 5NR       0.111000
     18 H2          -2.8070    -0.3860     1.0650 h1         1 5NR       0.036700
     19 H3          -4.2330     0.5860     0.7150 h1         1 5NR       0.036700
     20 H4           5.6720    -1.4770    -1.0090 ha         1 5NR       0.111000
     21 H5           4.1540    -2.8180     0.4440 ha         1 5NR       0.111000
     22 H6           1.5830     1.7910     1.6660 hc         1 5NR       0.046700
     23 H7           0.9110     0.2240     2.0340 hc         1 5NR       0.046700
     24 H8           0.5550     1.7330    -0.6040 hc         1 5NR       0.048700
     25 H9          -1.4010     1.3330     1.7340 hc         1 5NR       0.045700
     26 H10         -0.6970     2.8500     1.1990 hc         1 5NR       0.045700
     27 H11         -3.0330     2.6060     0.3460 h1         1 5NR       0.049450
     28 H12         -1.8640     2.7310    -0.9680 h1         1 5NR       0.049450
     29 H13         -1.2090     0.6860    -2.2510 h1         1 5NR       0.049450
     30 H14         -1.9200    -0.8740    -1.8620 h1         1 5NR       0.049450
     31 H15          0.4180    -0.6970    -1.0290 hc         1 5NR       0.045700
     32 H16         -0.6880    -0.9290     0.3150 hc         1 5NR       0.045700
     33 H17          3.1700     1.9900    -0.4260 ha         1 5NR       0.109500
     34 H18          2.1460    -1.7640     1.4600 ha         1 5NR       0.109500
     35 H20         -4.8020    -0.9720    -1.1970 h1         1 5NR       0.034700
     36 H21         -3.4300    -2.0020    -0.7230 h1         1 5NR       0.034700
     37 H22         -5.8110    -1.3800     0.9100 hn         1 5NR       0.391500
     38 H23         -5.5250    -2.7730     0.1470 hn         1 5NR       0.391500
@<TRIPOS>BOND
     1     1     3 ar  
     2     1    11 ar  
     3     1    17 1   
     4     2    14 1   
     5     2    15 1   
     6     2    18 1   
     7     2    19 1   
     8     3     4 ar  
     9     3    20 1   
    10     4    12 ar  
    11     4    21 1   
    12     5     6 1   
    13     5    13 1   
    14     5    22 1   
    15     5    23 1   
    16     6     7 1   
    17     6    10 1   
    18     6    24 1   
    19     7     8 1   
    20     7    25 1   
    21     7    26 1   
    22     8    14 1   
    23     8    27 1   
    24     8    28 1   
    25     9    10 1   
    26     9    14 1   
    27     9    29 1   
    28     9    30 1   
    29    10    31 1   
    30    10    32 1   
    31    11    13 ar  
    32    11    33 1   
    33    12    13 ar  
    34    12    34 1   
    35    15    16 1   
    36    15    35 1   
    37    15    36 1   
    38    16    37 1   
    39    16    38 1   
@<TRIPOS>SUBSTRUCTURE
     1 5NR         1 TEMP              0 ****  ****    0 ROOT
