@<TRIPOS>MOLECULE
5NR
   38    39     1     0     0
SMALL
bcc


@<TRIPOS>ATOM
      1 C4           4.4910     0.4340    -0.8300 ca         1 5NR      -0.127000
      2 C14         -3.4110    -0.1740     0.2470 c3         1 5NR       0.169800
      3 C5           4.8250    -0.8900    -0.5730 ca         1 5NR      -0.131000
      4 C6           4.0220    -1.6450     0.2720 ca         1 5NR      -0.127000
      5 C7           1.3110     0.8600     1.2000 c3         1 5NR      -0.028100
      6 C8           0.1620     1.0220     0.1990 c6         1 5NR      -0.055700
      7 C9          -1.0120     1.7710     0.8280 c6         1 5NR      -0.110900
      8 C10         -2.1690     1.8870    -0.1630 c6         1 5NR       0.171300
      9 C12         -1.5230    -0.1140    -1.2910 c6         1 5NR       0.171300
     10 C13         -0.3290    -0.3130    -0.3560 c6         1 5NR      -0.110900
     11 C3           3.3630     0.9940    -0.2470 ca         1 5NR      -0.126500
     12 C1           2.8940    -1.0780     0.8520 ca         1 5NR      -0.126500
     13 C2           2.5450     0.2460     0.6010 ca         1 5NR      -0.075300
     14 N11         -2.6300     0.6150    -0.6910 n3         1 5NR      -0.730600
     15 C15         -4.4120    -1.0720    -0.4700 c3         1 5NR       0.144800
     16 N16         -5.1760    -1.8480     0.4960 n8         1 5NR      -0.889800
     17 H1           5.1130     1.0330    -1.4830 ha         1 5NR       0.129000
     18 H2          -2.7970    -0.7870     0.9230 h1         1 5NR       0.036700
     19 H3          -3.9690     0.5170     0.8870 h1         1 5NR       0.036700
     20 H4           5.7060    -1.3280    -1.0240 ha         1 5NR       0.129000
     21 H5           4.2740    -2.6770     0.4810 ha         1 5NR       0.129000
     22 H6           1.5570     1.8440     1.6100 hc         1 5NR       0.046700
     23 H7           0.9660     0.2500     2.0410 hc         1 5NR       0.046700
     24 H8           0.5270     1.6260    -0.6440 hc         1 5NR       0.048700
     25 H9          -1.3370     1.2450     1.7340 hc         1 5NR       0.045700
     26 H10         -0.6980     2.7700     1.1440 hc         1 5NR       0.045700
     27 H11         -3.0130     2.4100     0.2930 h1         1 5NR       0.049450
     28 H12         -1.8420     2.5030    -1.0090 h1         1 5NR       0.049450
     29 H13         -1.1910     0.4420    -2.1760 h1         1 5NR       0.049450
     30 H14         -1.8790    -1.0800    -1.6560 h1         1 5NR       0.049450
     31 H15          0.4700    -0.8250    -0.8980 hc         1 5NR       0.045700
     32 H16         -0.6080    -0.9720     0.4740 hc         1 5NR       0.045700
     33 H17          3.1150     2.0290    -0.4510 ha         1 5NR       0.127500
     34 H18          2.2750    -1.6750     1.5120 ha         1 5NR       0.127500
     35 H20         -5.0270    -0.4430    -1.1270 h1         1 5NR       0.034700
     36 H21         -3.8820    -1.7730    -1.1200 h1         1 5NR       0.034700
     37 H22         -5.7820    -1.2280     1.0190 hn         1 5NR       0.336300
     38 H23         -5.7950    -2.4800     0.0050 hn         1 5NR       0.336300
@<TRIPOS>BOND
     1     1     3 ar  
     2     1    11 ar  
     3     1    17 1   
     4     2    14 1   
     5     2    15 1   
     6     2    18 1   
     7     2    19 1   
     8     3     4 ar  
     9     3    20 1   
    10     4    12 ar  
    11     4    21 1   
    12     5     6 1   
    13     5    13 1   
    14     5    22 1   
    15     5    23 1   
    16     6     7 1   
    17     6    10 1   
    18     6    24 1   
    19     7     8 1   
    20     7    25 1   
    21     7    26 1   
    22     8    14 1   
    23     8    27 1   
    24     8    28 1   
    25     9    10 1   
    26     9    14 1   
    27     9    29 1   
    28     9    30 1   
    29    10    31 1   
    30    10    32 1   
    31    11    13 ar  
    32    11    33 1   
    33    12    13 ar  
    34    12    34 1   
    35    15    16 1   
    36    15    35 1   
    37    15    36 1   
    38    16    37 1   
    39    16    38 1   
@<TRIPOS>SUBSTRUCTURE
     1 5NR         1 TEMP              0 ****  ****    0 ROOT
