@<TRIPOS>MOLECULE
5NS
   23    24     1     0     0
SMALL
abcg2


@<TRIPOS>ATOM
      1 C1           0.6660     1.9590    -0.0870 ca         1 5NS      -0.037000
      2 C2          -0.5730     2.6200    -0.1390 ca         1 5NS      -0.138000
      3 C3          -1.7330     1.9000    -0.1290 ca         1 5NS      -0.096000
      4 C4          -1.7150     0.4870    -0.0640 ca         1 5NS      -0.083000
      5 C5          -0.4630    -0.1970    -0.0440 ca         1 5NS       0.068000
      6 C6           0.7270     0.5920    -0.0450 ca         1 5NS      -0.206500
      7 C9          -1.6430    -2.2980    -0.0400 ca         1 5NS      -0.099000
      8 C10         -0.4580    -1.6130    -0.0350 ca         1 5NS      -0.097000
      9 O14          2.3730    -0.9560     1.2640 o          1 5NS      -0.691867
     10 S11          2.3540    -0.1750     0.0150 s6         1 5NS       1.255100
     11 O12          2.4430    -1.0090    -1.1980 o          1 5NS      -0.691867
     12 O13          3.3200     0.9360     0.0180 o          1 5NS      -0.691867
     13 C8          -2.8780    -1.6370    -0.0290 ca         1 5NS      -0.201000
     14 C7          -2.9370    -0.2600    -0.0320 ca         1 5NS       0.269000
     15 N15         -4.1510     0.3970    -0.0640 nv         1 5NS      -1.071000
     16 H1           1.5750     2.5440    -0.0870 ha         1 5NS       0.138000
     17 H2          -0.6010     3.7000    -0.1920 ha         1 5NS       0.092000
     18 H3          -2.6730     2.4320    -0.1900 ha         1 5NS       0.088000
     19 H9          -1.6310    -3.3810    -0.0370 ha         1 5NS       0.097000
     20 H10          0.4670    -2.1660    -0.0290 ha         1 5NS       0.151000
     21 H8          -3.7940    -2.2150    -0.0070 ha         1 5NS       0.090000
     22 HN15        -4.2090     1.2500     0.4690 hn         1 5NS       0.428500
     23 HN1A        -4.9440    -0.1940     0.1340 hn         1 5NS       0.428500
@<TRIPOS>BOND
     1     1     2 ar  
     2     1     6 ar  
     3     1    16 1   
     4     2     3 ar  
     5     2    17 1   
     6     3     4 ar  
     7     3    18 1   
     8     4     5 ar  
     9     4    14 ar  
    10     5     6 ar  
    11     5     8 ar  
    12     6    10 1   
    13     7     8 ar  
    14     7    13 ar  
    15     7    19 1   
    16     8    20 1   
    17     9    10 1   
    18    10    11 1   
    19    10    12 1   
    20    13    14 ar  
    21    13    21 1   
    22    14    15 1   
    23    15    22 1   
    24    15    23 1   
@<TRIPOS>SUBSTRUCTURE
     1 5NS         1 TEMP              0 ****  ****    0 ROOT
