@<TRIPOS>MOLECULE
5NS
   23    24     1     0     0
SMALL
No Charge or Current Charge


@<TRIPOS>ATOM
      1 C1           0.6740     1.9900    -0.0710 ca         1 5NS      -0.037000
      2 C2          -0.5620     2.6440    -0.0810 ca         1 5NS      -0.138000
      3 C3          -1.7500     1.9070    -0.0670 ca         1 5NS      -0.096000
      4 C4          -1.7180     0.4940    -0.0410 ca         1 5NS      -0.083000
      5 C5          -0.4600    -0.1790    -0.0320 ca         1 5NS       0.068000
      6 C6           0.7520     0.5780    -0.0460 ca         1 5NS      -0.206500
      7 C9          -1.6560    -2.3250     0.0060 ca         1 5NS      -0.099000
      8 C10         -0.4580    -1.5970    -0.0080 ca         1 5NS      -0.097000
      9 O14          2.4040    -0.9820     1.2230 o          1 5NS      -0.691867
     10 S11          2.4420    -0.2190    -0.0340 s6         1 5NS       1.255100
     11 O12          2.4020    -1.0240    -1.2640 o          1 5NS      -0.691867
     12 O13          3.3580     0.9310    -0.0540 o          1 5NS      -0.691867
     13 C8          -2.8840    -1.6560    -0.0030 ca         1 5NS      -0.201000
     14 C7          -2.9250    -0.2570    -0.0260 ca         1 5NS       0.269000
     15 N15         -4.1660     0.3340    -0.0300 nv         1 5NS      -1.071000
     16 H1           1.5750     2.6000    -0.0820 ha         1 5NS       0.138000
     17 H2          -0.5990     3.7310    -0.1010 ha         1 5NS       0.092000
     18 H3          -2.6900     2.4520    -0.0780 ha         1 5NS       0.088000
     19 H9          -1.6300    -3.4130     0.0230 ha         1 5NS       0.097000
     20 H10          0.4640    -2.1670     0.0000 ha         1 5NS       0.151000
     21 H8          -3.8050    -2.2320     0.0080 ha         1 5NS       0.090000
     22 HN15        -4.2480     1.3390     0.0980 hn         1 5NS       0.428500
     23 HN1A        -4.9980    -0.2330     0.1140 hn         1 5NS       0.428500
@<TRIPOS>BOND
     1     1     2 ar  
     2     1     6 ar  
     3     1    16 1   
     4     2     3 ar  
     5     2    17 1   
     6     3     4 ar  
     7     3    18 1   
     8     4     5 ar  
     9     4    14 ar  
    10     5     6 ar  
    11     5     8 ar  
    12     6    10 1   
    13     7     8 ar  
    14     7    13 ar  
    15     7    19 1   
    16     8    20 1   
    17     9    10 1   
    18    10    11 1   
    19    10    12 1   
    20    13    14 ar  
    21    13    21 1   
    22    14    15 1   
    23    15    22 1   
    24    15    23 1   
@<TRIPOS>SUBSTRUCTURE
     1 5NS         1 TEMP              0 ****  ****    0 ROOT
