@<TRIPOS>MOLECULE
5NT
   34    36     1     0     0
SMALL
bcc


@<TRIPOS>ATOM
      1 O2           3.7320    -2.3360    -0.5460 o          1 5NT      -0.636500
      2 C10          3.0710    -1.3370    -0.2930 c          1 5NT       0.757100
      3 N4           3.6530    -0.0740    -0.2620 ns         1 5NT      -0.511400
      4 C            2.9970     1.0990     0.0130 cc         1 5NT       0.681800
      5 N            3.7670     2.2150     0.0460 nv         1 5NT      -0.916800
      6 C9           1.6870    -1.2500     0.0050 cc         1 5NT      -0.272900
      7 C1           1.0720    -0.0320     0.2790 cd         1 5NT       0.173400
      8 N1           1.7280     1.1630     0.2790 nd         1 5NT      -0.664100
      9 N3           0.7440    -2.2320     0.0970 na         1 5NT      -0.132100
     10 C8          -0.4410    -1.6650     0.4220 cc         1 5NT      -0.073300
     11 C2          -0.2970    -0.2990     0.5390 cd         1 5NT      -0.159300
     12 C3          -1.3620     0.6920     0.9010 c5         1 5NT       0.258800
     13 C7          -1.5920     1.7070    -0.2250 c5         1 5NT       0.121100
     14 O1          -2.1820     2.8530     0.3570 oh         1 5NT      -0.601800
     15 C6          -2.5730     0.9520    -1.1080 c5         1 5NT      -0.132400
     16 C4          -3.4880     0.2510    -0.0980 c5         1 5NT       0.173500
     17 N2          -2.6550     0.0340     1.0920 n7         1 5NT      -0.813200
     18 C5          -4.0550    -1.0380    -0.6530 c3         1 5NT       0.149400
     19 O           -4.9460    -1.5950     0.2870 oh         1 5NT      -0.591800
     20 H1           4.6490    -0.0420    -0.4360 hn         1 5NT       0.323500
     21 H2           4.6150     2.2350    -0.4960 hn         1 5NT       0.426800
     22 H3           3.2610     3.0850     0.0490 hn         1 5NT       0.426800
     23 H4           0.9030    -3.2170    -0.0350 hn         1 5NT       0.313700
     24 H5          -1.3230    -2.2670     0.5610 h4         1 5NT       0.182000
     25 H6          -1.0640     1.2120     1.8180 h1         1 5NT       0.081700
     26 H7          -0.6650     1.9670    -0.7490 h1         1 5NT       0.068700
     27 H8          -2.5090     3.4150    -0.3510 ho         1 5NT       0.402000
     28 H9          -3.1200     1.5980    -1.7970 hc         1 5NT       0.053700
     29 H10         -2.0310     0.2200    -1.7140 hc         1 5NT       0.053700
     30 H11         -4.3280     0.9120     0.1470 h1         1 5NT       0.050700
     31 H12         -3.1140     0.4000     1.9120 hn         1 5NT       0.374800
     32 H14         -4.5610    -0.8200    -1.6040 h1         1 5NT       0.016700
     33 H15         -3.2250    -1.7200    -0.8790 h1         1 5NT       0.016700
     34 H16         -5.2790    -2.4230    -0.0700 ho         1 5NT       0.399000
@<TRIPOS>BOND
     1     1     2 2   
     2     2     3 1   
     3     2     6 1   
     4     3     4 1   
     5     3    20 1   
     6     4     5 1   
     7     4     8 2   
     8     5    21 1   
     9     5    22 1   
    10     6     7 2   
    11     6     9 1   
    12     7     8 1   
    13     7    11 1   
    14     9    10 1   
    15     9    23 1   
    16    10    11 2   
    17    10    24 1   
    18    11    12 1   
    19    12    13 1   
    20    12    17 1   
    21    12    25 1   
    22    13    14 1   
    23    13    15 1   
    24    13    26 1   
    25    14    27 1   
    26    15    16 1   
    27    15    28 1   
    28    15    29 1   
    29    16    17 1   
    30    16    18 1   
    31    16    30 1   
    32    17    31 1   
    33    18    19 1   
    34    18    32 1   
    35    18    33 1   
    36    19    34 1   
@<TRIPOS>SUBSTRUCTURE
     1 5NT         1 TEMP              0 ****  ****    0 ROOT
