@<TRIPOS>MOLECULE
5NT
   34    36     1     0     0
SMALL
No Charge or Current Charge


@<TRIPOS>ATOM
      1 O2           4.3760    -1.9040    -0.3040 o          1 5NT      -0.561000
      2 C10          3.6130    -1.0000    -0.0050 c          1 5NT       0.614600
      3 N4           4.0260     0.1720     0.5200 ns         1 5NT      -0.444400
      4 C            3.1820     1.1700     0.8540 cc         1 5NT       0.681800
      5 N            3.7480     2.2590     1.3550 nv         1 5NT      -1.027200
      6 C9           2.1650    -1.0340    -0.1590 cc         1 5NT      -0.323600
      7 C1           1.3590     0.0060     0.2000 cd         1 5NT       0.173400
      8 N1           1.8730     1.1810     0.7370 nd         1 5NT      -0.664100
      9 N3           1.3050    -2.0260    -0.6540 na         1 5NT      -0.081000
     10 C8          -0.0260    -1.5860    -0.5990 cc         1 5NT      -0.106000
     11 C2           0.0200    -0.3200    -0.0640 cd         1 5NT      -0.159300
     12 C3          -1.2770     0.4480     0.1200 c5         1 5NT       0.258800
     13 C7          -1.7440     1.0590    -1.2620 c5         1 5NT       0.144300
     14 O1          -1.8320     2.4920    -1.2350 oh         1 5NT      -0.664000
     15 C6          -3.1520     0.4210    -1.4460 c5         1 5NT      -0.132400
     16 C4          -3.6050     0.2410     0.0230 c5         1 5NT       0.173500
     17 N2          -2.4030    -0.4000     0.5980 n7         1 5NT      -0.868400
     18 C5          -4.9110    -0.5930     0.2010 c3         1 5NT       0.172600
     19 O           -5.2590    -0.7270     1.5910 oh         1 5NT      -0.654000
     20 H1           5.0130     0.2750     0.6810 hn         1 5NT       0.323500
     21 H2           4.6940     2.4660     1.0600 hn         1 5NT       0.482000
     22 H3           3.1290     3.0580     1.4260 hn         1 5NT       0.482000
     23 H4           1.6010    -2.9350    -1.0030 hn         1 5NT       0.364000
     24 H5          -0.8630    -2.1910    -0.9310 h4         1 5NT       0.164000
     25 H6          -1.0910     1.2640     0.8340 h1         1 5NT       0.081700
     26 H7          -1.0760     0.7440    -2.0780 h1         1 5NT       0.068700
     27 H8          -2.1100     2.7770    -2.1330 ho         1 5NT       0.441000
     28 H9          -3.8380     1.0500    -2.0240 hc         1 5NT       0.053700
     29 H10         -3.0840    -0.5440    -1.9620 hc         1 5NT       0.053700
     30 H11         -3.7730     1.2250     0.4870 h1         1 5NT       0.050700
     31 H12         -2.4520    -0.3900     1.6230 hn         1 5NT       0.430000
     32 H14         -5.7240    -0.0930    -0.3430 h1         1 5NT       0.016700
     33 H15         -4.7680    -1.5840    -0.2510 h1         1 5NT       0.016700
     34 H16         -6.0440    -1.3170     1.6310 ho         1 5NT       0.438000
@<TRIPOS>BOND
     1     1     2 2   
     2     2     3 1   
     3     2     6 1   
     4     3     4 1   
     5     3    20 1   
     6     4     5 1   
     7     4     8 2   
     8     5    21 1   
     9     5    22 1   
    10     6     7 2   
    11     6     9 1   
    12     7     8 1   
    13     7    11 1   
    14     9    10 1   
    15     9    23 1   
    16    10    11 2   
    17    10    24 1   
    18    11    12 1   
    19    12    13 1   
    20    12    17 1   
    21    12    25 1   
    22    13    14 1   
    23    13    15 1   
    24    13    26 1   
    25    14    27 1   
    26    15    16 1   
    27    15    28 1   
    28    15    29 1   
    29    16    17 1   
    30    16    18 1   
    31    16    30 1   
    32    17    31 1   
    33    18    19 1   
    34    18    32 1   
    35    18    33 1   
    36    19    34 1   
@<TRIPOS>SUBSTRUCTURE
     1 5NT         1 TEMP              0 ****  ****    0 ROOT
