@<TRIPOS>MOLECULE
5NU
   14    14     1     0     0
SMALL
abcg2


@<TRIPOS>ATOM
      1 O4          -0.4240    -2.1870    -0.0140 o          1 5NU      -0.457000
      2 C4           0.0790    -1.0890     0.0090 c          1 5NU       0.613200
      3 N3           1.4640    -0.9630     0.0140 ns         1 5NU      -0.475500
      4 C2           2.2250     0.1720     0.0290 c          1 5NU       0.617000
      5 O2           3.4310     0.1790     0.0300 o          1 5NU      -0.513000
      6 N1           1.4740     1.3350     0.0440 ns         1 5NU      -0.495600
      7 C6           0.1420     1.3500     0.0450 cc         1 5NU       0.098600
      8 C5          -0.5920     0.2060     0.0320 cd         1 5NU      -0.389300
      9 N51         -2.0180     0.3190     0.0390 no         1 5NU       0.709100
     10 O53         -2.4980     1.4340     0.0160 o          1 5NU      -0.393000
     11 O52         -2.6760    -0.6920     0.0700 o          1 5NU      -0.393000
     12 H1           1.9810    -1.8340    -0.0010 hn         1 5NU       0.355500
     13 H2          -0.3160     2.3290     0.0590 h4         1 5NU       0.245000
     14 H4           1.9780     2.2120     0.0530 hn         1 5NU       0.477000
@<TRIPOS>BOND
     1     1     2 2   
     2     2     3 1   
     3     2     8 1   
     4     3     4 1   
     5     3    12 1   
     6     4     5 2   
     7     4     6 1   
     8     6     7 1   
     9     6    14 1   
    10     7     8 2   
    11     7    13 1   
    12     8     9 1   
    13     9    10 1   
    14     9    11 1   
@<TRIPOS>SUBSTRUCTURE
     1 5NU         1 TEMP              0 ****  ****    0 ROOT
