@<TRIPOS>MOLECULE
5NU
   14    14     1     0     0
SMALL
No Charge or Current Charge


@<TRIPOS>ATOM
      1 O4          -0.4170    -2.1540    -0.1620 o          1 5NU      -0.457000
      2 C4           0.1100    -1.0600    -0.0590 c          1 5NU       0.613200
      3 N3           1.4670    -0.9510    -0.0330 ns         1 5NU      -0.475500
      4 C2           2.2230     0.1670     0.0430 c          1 5NU       0.617000
      5 O2           3.4370     0.1490     0.0590 o          1 5NU      -0.513000
      6 N1           1.5000     1.3150     0.0960 ns         1 5NU      -0.495600
      7 C6           0.1170     1.3960     0.0860 cc         1 5NU       0.098600
      8 C5          -0.6190     0.2260     0.0280 cd         1 5NU      -0.389300
      9 N51         -2.0580     0.2670     0.0080 no         1 5NU       0.709100
     10 O53         -2.5900     1.3030    -0.4090 o          1 5NU      -0.393000
     11 O52         -2.6780    -0.6410     0.5700 o          1 5NU      -0.393000
     12 H1           1.9760    -1.8190    -0.0850 hn         1 5NU       0.355500
     13 H2          -0.2770     2.4120     0.1350 h4         1 5NU       0.245000
     14 H4           2.0610     2.1600     0.1470 hn         1 5NU       0.477000
@<TRIPOS>BOND
     1     1     2 2   
     2     2     3 1   
     3     2     8 1   
     4     3     4 1   
     5     3    12 1   
     6     4     5 2   
     7     4     6 1   
     8     6     7 1   
     9     6    14 1   
    10     7     8 2   
    11     7    13 1   
    12     8     9 1   
    13     9    10 1   
    14     9    11 1   
@<TRIPOS>SUBSTRUCTURE
     1 5NU         1 TEMP              0 ****  ****    0 ROOT
