@<TRIPOS>MOLECULE
5NW
   58    61     1     0     0
SMALL
No Charge or Current Charge


@<TRIPOS>ATOM
      1 C1          -2.6980     2.9610     0.4780 ca         1 5NW      -0.127000
      2 N5          -5.4190     2.2020     0.3260 nb         1 5NW      -0.767000
      3 C6           3.7530     1.0220    -0.4960 ca         1 5NW      -0.121000
      4 C7           4.3970    -0.1950    -0.1910 ca         1 5NW       0.029000
      5 C8           3.6070    -1.3040     0.1710 ca         1 5NW      -0.167000
      6 C9           2.1970    -1.2020     0.2380 ca         1 5NW       0.093100
      7 C10          1.9520    -3.5830     0.8960 c3         1 5NW       0.154900
      8 C11          5.8590    -0.3310    -0.2520 cc         1 5NW      -0.154000
      9 C12          6.6790    -1.4430     0.0050 cc         1 5NW       0.251900
     10 C13          6.6960     0.6930    -0.5930 cd         1 5NW      -0.155000
     11 C15         -3.7240     3.9070     0.6380 ca         1 5NW      -0.192000
     12 C18         -6.2580    -0.4750    -0.1520 c3         1 5NW       0.237800
     13 C19         -6.3420    -2.0110    -0.4240 c3         1 5NW      -0.060000
     14 C20         -5.6620    -2.3720    -1.7750 c3         1 5NW      -0.085433
     15 C21         -5.6780    -2.8150     0.7290 c3         1 5NW      -0.085433
     16 C22         -7.8400    -2.4090    -0.5040 c3         1 5NW      -0.085433
     17 C17         -4.4310     1.3030     0.1740 ca         1 5NW       0.641900
     18 C16         -5.0620     3.4860     0.5550 ca         1 5NW       0.375900
     19 C           -3.0450     1.6140     0.2380 ca         1 5NW      -0.014000
     20 N1          -2.0650     0.6870     0.0820 nb         1 5NW      -0.252000
     21 C3          -0.7890     1.1100     0.1560 ca         1 5NW       0.378900
     22 N           -0.3740     2.3690     0.3930 nb         1 5NW      -0.206000
     23 C2          -1.3340     3.3000     0.5500 ca         1 5NW       0.156900
     24 N2           0.1550     0.1010     0.0180 nu         1 5NW      -0.920900
     25 C4           1.5610     0.0330    -0.0500 ca         1 5NW       0.285000
     26 C5           2.3530     1.1330    -0.4310 ca         1 5NW      -0.098000
     27 N4           7.9780     0.1340    -0.5220 na         1 5NW       0.133800
     28 C14          9.2450     0.8250    -0.7990 c3         1 5NW       0.072900
     29 N3           7.9660    -1.2040    -0.1470 nd         1 5NW      -0.525800
     30 H1           4.3250     1.8960    -0.7930 ha         1 5NW       0.112000
     31 H2           4.0980    -2.2440     0.3970 ha         1 5NW       0.118000
     32 H3           1.1470    -4.2890     1.1380 h1         1 5NW       0.041367
     33 H4           2.5120    -3.9870     0.0430 h1         1 5NW       0.041367
     34 H5           2.6230    -3.5240     1.7620 h1         1 5NW       0.041367
     35 H6           6.3710    -2.4360     0.3030 h4         1 5NW       0.035100
     36 H7           6.5180     1.7250    -0.8690 h4         1 5NW       0.154000
     37 H8          -3.4980     4.9540     0.8250 ha         1 5NW       0.124000
     38 H9          -6.7790     0.0580    -0.9600 h1         1 5NW       0.051700
     39 H10         -6.7910    -0.2500     0.7830 h1         1 5NW       0.051700
     40 H11         -4.5860    -2.1610    -1.7540 hc         1 5NW       0.036033
     41 H12         -5.7860    -3.4380    -2.0020 hc         1 5NW       0.036033
     42 H13         -6.1030    -1.7990    -2.6000 hc         1 5NW       0.036033
     43 H14         -6.1310    -2.5580     1.6950 hc         1 5NW       0.036033
     44 H15         -5.8020    -3.8940     0.5750 hc         1 5NW       0.036033
     45 H16         -4.6030    -2.6120     0.7950 hc         1 5NW       0.036033
     46 H17         -8.3470    -1.8680    -1.3130 hc         1 5NW       0.036033
     47 H18         -7.9530    -3.4840    -0.6950 hc         1 5NW       0.036033
     48 H19         -8.3580    -2.1770     0.4340 hc         1 5NW       0.036033
     49 H20         -4.1210    -0.6620    -0.1740 hn         1 5NW       0.515000
     50 H21         -5.8760     4.2010     0.6760 h4         1 5NW       0.015100
     51 H22         -1.0060     4.3210     0.7370 h4         1 5NW       0.026100
     52 H23         -0.2610    -0.8280     0.0970 hn         1 5NW       0.521000
     53 H24          1.8950     2.0780    -0.6980 ha         1 5NW       0.144000
     54 H25          9.8770     0.8040     0.0960 h1         1 5NW       0.056367
     55 H26          9.7630     0.3230    -1.6240 h1         1 5NW       0.056367
     56 H27          9.0460     1.8670    -1.0780 h1         1 5NW       0.056367
     57 N6          -4.8710     0.0120    -0.0570 nu         1 5NW      -0.917100
     58 O            1.4030    -2.2900     0.5830 os         1 5NW      -0.362100
@<TRIPOS>BOND
     1     1    11 ar  
     2     1    19 ar  
     3     1    23 ar  
     4     2    17 ar  
     5     2    18 ar  
     6     3     4 ar  
     7     3    26 ar  
     8     3    30 1   
     9     4     5 ar  
    10     4     8 1   
    11     5     6 ar  
    12     5    31 1   
    13     6    25 ar  
    14     6    58 1   
    15     7    32 1   
    16     7    33 1   
    17     7    34 1   
    18     7    58 1   
    19     8     9 1   
    20     8    10 2   
    21     9    29 2   
    22     9    35 1   
    23    10    27 1   
    24    10    36 1   
    25    11    18 ar  
    26    11    37 1   
    27    12    13 1   
    28    12    38 1   
    29    12    39 1   
    30    12    57 1   
    31    13    14 1   
    32    13    15 1   
    33    13    16 1   
    34    14    40 1   
    35    14    41 1   
    36    14    42 1   
    37    15    43 1   
    38    15    44 1   
    39    15    45 1   
    40    16    46 1   
    41    16    47 1   
    42    16    48 1   
    43    17    19 ar  
    44    17    57 1   
    45    18    50 1   
    46    19    20 ar  
    47    20    21 ar  
    48    21    22 ar  
    49    21    24 1   
    50    22    23 ar  
    51    23    51 1   
    52    24    25 1   
    53    24    52 1   
    54    25    26 ar  
    55    26    53 1   
    56    27    28 1   
    57    27    29 1   
    58    28    54 1   
    59    28    55 1   
    60    28    56 1   
    61    49    57 1   
@<TRIPOS>SUBSTRUCTURE
     1 5NW         1 TEMP              0 ****  ****    0 ROOT
