@<TRIPOS>MOLECULE
5NW
   58    61     1     0     0
SMALL
abcg2


@<TRIPOS>ATOM
      1 C1          -2.6540     2.9410     0.1900 ca         1 5NW      -0.127000
      2 N5          -5.3230     2.1650     0.3170 nb         1 5NW      -0.767000
      3 C6           3.6440     0.9870    -0.6300 ca         1 5NW      -0.121000
      4 C7           4.2890    -0.1900    -0.2720 ca         1 5NW       0.029000
      5 C8           3.5010    -1.2900     0.0820 ca         1 5NW      -0.167000
      6 C9           2.1200    -1.2080     0.0890 ca         1 5NW       0.093100
      7 C10          1.8550    -3.4900     0.7080 c3         1 5NW       0.154900
      8 C11          5.7450    -0.2910    -0.2610 cc         1 5NW      -0.154000
      9 C12          6.5510    -1.4490    -0.2590 cc         1 5NW       0.251900
     10 C13          6.6690     0.7360    -0.2360 cd         1 5NW      -0.155000
     11 C15         -3.6720     3.9120     0.3520 ca         1 5NW      -0.192000
     12 C18         -6.0850    -0.5320     0.1710 c3         1 5NW       0.237800
     13 C19         -6.2390    -1.9930    -0.2630 c3         1 5NW      -0.060000
     14 C20         -5.8670    -2.1590    -1.7370 c3         1 5NW      -0.085433
     15 C21         -5.3710    -2.9150     0.5970 c3         1 5NW      -0.085433
     16 C22         -7.7070    -2.3710    -0.0630 c3         1 5NW      -0.085433
     17 C17         -4.4010     1.2480     0.1520 ca         1 5NW       0.641900
     18 C16         -4.9570     3.4640     0.4090 ca         1 5NW       0.375900
     19 C           -2.9960     1.5890     0.0890 ca         1 5NW      -0.014000
     20 N1          -2.0880     0.6200    -0.0540 nb         1 5NW      -0.252000
     21 C3          -0.8220     0.9870    -0.1030 ca         1 5NW       0.378900
     22 N           -0.3770     2.2580    -0.0300 nb         1 5NW      -0.206000
     23 C2          -1.2710     3.1970     0.1140 ca         1 5NW       0.156900
     24 N2           0.0800    -0.0210    -0.2300 nu         1 5NW      -0.920900
     25 C4           1.4730    -0.0020    -0.2510 ca         1 5NW       0.285000
     26 C5           2.2590     1.0820    -0.6200 ca         1 5NW      -0.098000
     27 N4           7.8880     0.1750    -0.2210 na         1 5NW       0.133800
     28 C14          9.1630     0.8480    -0.2170 c3         1 5NW       0.072900
     29 N3           7.8350    -1.1520    -0.2370 nd         1 5NW      -0.525800
     30 H1           4.2130     1.8520    -0.9420 ha         1 5NW       0.112000
     31 H2           3.9840    -2.2110     0.3820 ha         1 5NW       0.118000
     32 H3           1.0190    -4.1580     0.8960 h1         1 5NW       0.041367
     33 H4           2.4410    -3.8830    -0.1260 h1         1 5NW       0.041367
     34 H5           2.4840    -3.4600     1.6010 h1         1 5NW       0.041367
     35 H6           6.2400    -2.4820    -0.2810 h4         1 5NW       0.035100
     36 H7           6.5420     1.8060    -0.2120 h4         1 5NW       0.154000
     37 H8          -3.4370     4.9640     0.4320 ha         1 5NW       0.124000
     38 H9          -6.7480     0.0960    -0.4310 h1         1 5NW       0.051700
     39 H10         -6.4210    -0.4230     1.2100 h1         1 5NW       0.051700
     40 H11         -4.8210    -1.9170    -1.9270 hc         1 5NW       0.036033
     41 H12         -6.0260    -3.1900    -2.0620 hc         1 5NW       0.036033
     42 H13         -6.4750    -1.5160    -2.3770 hc         1 5NW       0.036033
     43 H14         -5.5720    -2.7780     1.6610 hc         1 5NW       0.036033
     44 H15         -5.5680    -3.9610     0.3560 hc         1 5NW       0.036033
     45 H16         -4.3000    -2.7620     0.4410 hc         1 5NW       0.036033
     46 H17         -8.3680    -1.7440    -0.6640 hc         1 5NW       0.036033
     47 H18         -7.8830    -3.4070    -0.3540 hc         1 5NW       0.036033
     48 H19         -8.0100    -2.2670     0.9810 hc         1 5NW       0.036033
     49 H20         -3.9680    -0.6960     0.0210 hn         1 5NW       0.515000
     50 H21         -5.7720     4.1650     0.5410 h4         1 5NW       0.015100
     51 H22         -0.9040     4.2170     0.1750 h4         1 5NW       0.026100
     52 H23         -0.3350    -0.9380    -0.1730 hn         1 5NW       0.521000
     53 H24          1.7930     2.0110    -0.9040 ha         1 5NW       0.144000
     54 H25          9.7860     0.4650     0.5870 h1         1 5NW       0.056367
     55 H26          9.6770     0.7100    -1.1660 h1         1 5NW       0.056367
     56 H27          9.0040     1.9100    -0.0560 h1         1 5NW       0.056367
     57 N6          -4.7370    -0.0460     0.0260 nu         1 5NW      -0.917100
     58 O            1.2990    -2.2270     0.4130 os         1 5NW      -0.362100
@<TRIPOS>BOND
     1     1    11 ar  
     2     1    19 ar  
     3     1    23 ar  
     4     2    17 ar  
     5     2    18 ar  
     6     3     4 ar  
     7     3    26 ar  
     8     3    30 1   
     9     4     5 ar  
    10     4     8 1   
    11     5     6 ar  
    12     5    31 1   
    13     6    25 ar  
    14     6    58 1   
    15     7    32 1   
    16     7    33 1   
    17     7    34 1   
    18     7    58 1   
    19     8     9 1   
    20     8    10 2   
    21     9    29 2   
    22     9    35 1   
    23    10    27 1   
    24    10    36 1   
    25    11    18 ar  
    26    11    37 1   
    27    12    13 1   
    28    12    38 1   
    29    12    39 1   
    30    12    57 1   
    31    13    14 1   
    32    13    15 1   
    33    13    16 1   
    34    14    40 1   
    35    14    41 1   
    36    14    42 1   
    37    15    43 1   
    38    15    44 1   
    39    15    45 1   
    40    16    46 1   
    41    16    47 1   
    42    16    48 1   
    43    17    19 ar  
    44    17    57 1   
    45    18    50 1   
    46    19    20 ar  
    47    20    21 ar  
    48    21    22 ar  
    49    21    24 1   
    50    22    23 ar  
    51    23    51 1   
    52    24    25 1   
    53    24    52 1   
    54    25    26 ar  
    55    26    53 1   
    56    27    28 1   
    57    27    29 1   
    58    28    54 1   
    59    28    55 1   
    60    28    56 1   
    61    49    57 1   
@<TRIPOS>SUBSTRUCTURE
     1 5NW         1 TEMP              0 ****  ****    0 ROOT
