@<TRIPOS>MOLECULE
5NX
   55    59     1     0     0
SMALL
bcc


@<TRIPOS>ATOM
      1 C4           1.6260    -1.9440    -0.0300 cc         1 5NX       0.287100
      2 C5           2.3030    -0.9980     0.7020 cd         1 5NX      -0.314900
      3 C6           3.7240    -1.0850     0.8230 c          1 5NX       0.779100
      4 C8           0.1710    -0.5690     0.8810 cc         1 5NX       0.002400
      5 N1           4.1970    -2.1590     0.0730 ns         1 5NX      -0.515400
      6 N3           2.1300    -2.9580    -0.7190 nc         1 5NX      -0.703100
      7 CAL          3.0480     2.5910     0.6770 ca         1 5NX      -0.092000
      8 CAU          3.1840     3.6920    -0.1520 ca         1 5NX       0.022400
      9 CL           4.7560     4.1070    -0.7510 cl         1 5NX      -0.080400
     10 CAJ          2.0930     4.4710    -0.5070 ca         1 5NX      -0.086000
     11 CAI          0.8430     4.1380    -0.0080 ca         1 5NX      -0.114000
     12 CAK          0.6900     3.0400     0.8260 ca         1 5NX      -0.108000
     13 CAV          1.7890     2.2590     1.1650 ca         1 5NX      -0.147300
     14 N7           1.3600    -0.1580     1.2590 na         1 5NX       0.054900
     15 O6           4.4750    -0.3780     1.4650 o          1 5NX      -0.561500
     16 C2           3.4430    -3.0350    -0.6540 cd         1 5NX       0.785800
     17 N9           0.2900    -1.6490     0.0970 na         1 5NX      -0.053100
     18 CBG         -0.8000    -2.4310    -0.4570 c5         1 5NX       0.256800
     19 OAS         -1.7680    -1.5660    -0.9580 os         1 5NX      -0.404600
     20 CBE         -1.5220    -3.2790     0.5840 c5         1 5NX       0.058100
     21 OAG         -0.7840    -4.4220     0.8730 oh         1 5NX      -0.571800
     22 CBD         -2.8510    -3.5220    -0.1380 c5         1 5NX       0.098100
     23 OAF         -2.7270    -4.5380    -1.0960 oh         1 5NX      -0.575800
     24 CBF         -3.0590    -2.1910    -0.8640 c5         1 5NX       0.113100
     25 CAN         -4.0260    -1.2630    -0.1490 c3         1 5NX       0.217800
     26 NAQ         -4.2670    -0.0520    -0.9030 nu         1 5NX      -0.723000
     27 CAX         -3.7800     1.1330    -0.6050 cc         1 5NX       0.047800
     28 CBA         -2.9500     1.6770     0.4840 c          1 5NX       0.484300
     29 OAD         -2.3980     1.2230     1.4620 o          1 5NX      -0.545100
     30 CAZ         -3.0720     3.0380    -0.1560 c          1 5NX       0.464300
     31 OAC         -2.6750     4.1560     0.0850 o          1 5NX      -0.474100
     32 CAW         -3.8770     2.3980    -1.1820 cd         1 5NX      -0.057100
     33 OAE         -4.4950     2.7800    -2.2700 oh         1 5NX      -0.440100
     34 H1          -0.7620    -0.1030     1.1610 h5         1 5NX       0.264000
     35 H2           5.2010    -2.2940     0.1000 hn         1 5NX       0.351500
     36 H3           5.0780    -4.1150    -1.2660 hn         1 5NX       0.477300
     37 H4           3.5470    -4.6760    -1.8230 hn         1 5NX       0.477300
     38 H6           2.2160     5.3280    -1.1550 ha         1 5NX       0.163000
     39 H7          -0.0160     4.7400    -0.2690 ha         1 5NX       0.160000
     40 H8          -0.2880     2.7990     1.2220 ha         1 5NX       0.143000
     41 H11         -0.3480    -3.0600    -1.2310 h2         1 5NX       0.137700
     42 H12         -1.7070    -2.6680     1.4780 h1         1 5NX       0.056700
     43 H13         -1.0490    -4.7610     1.7330 ho         1 5NX       0.434000
     44 H14         -3.6640    -3.7260     0.5710 h1         1 5NX       0.072700
     45 H15         -2.3020    -5.2950    -0.6770 ho         1 5NX       0.435000
     46 H16         -3.4320    -2.3790    -1.8760 h1         1 5NX       0.108700
     47 H17         -4.9760    -1.7840    -0.0250 h1         1 5NX       0.074700
     48 H18         -3.6670    -1.0050     0.8470 h1         1 5NX       0.074700
     49 H19         -4.8340    -0.1370    -1.7340 hn         1 5NX       0.463800
     50 H20         -4.3840     3.7290    -2.4200 ho         1 5NX       0.461000
     51 N2           4.0810    -3.9940    -1.3120 nv         1 5NX      -0.910800
     52 CAO          1.6070     1.0540     2.0480 c3         1 5NX       0.085600
     53 H5           3.9140     2.0030     0.9480 ha         1 5NX       0.163000
     54 H9           2.4780     0.8700     2.6710 h1         1 5NX       0.101200
     55 H10          0.7520     1.1820     2.7100 h1         1 5NX       0.101200
@<TRIPOS>BOND
     1     1     2 2   
     2     1     6 1   
     3     1    17 1   
     4     2     3 1   
     5     2    14 1   
     6     3     5 1   
     7     3    15 2   
     8     4    14 2   
     9     4    17 1   
    10     4    34 1   
    11     5    16 1   
    12     5    35 1   
    13     6    16 2   
    14     7     8 ar  
    15     7    13 ar  
    16     7    53 1   
    17     8     9 1   
    18     8    10 ar  
    19    10    11 ar  
    20    10    38 1   
    21    11    12 ar  
    22    11    39 1   
    23    12    13 ar  
    24    12    40 1   
    25    13    52 1   
    26    14    52 1   
    27    16    51 1   
    28    17    18 1   
    29    18    19 1   
    30    18    20 1   
    31    18    41 1   
    32    19    24 1   
    33    20    21 1   
    34    20    22 1   
    35    20    42 1   
    36    21    43 1   
    37    22    23 1   
    38    22    24 1   
    39    22    44 1   
    40    23    45 1   
    41    24    25 1   
    42    24    46 1   
    43    25    26 1   
    44    25    47 1   
    45    25    48 1   
    46    26    27 1   
    47    26    49 1   
    48    27    28 1   
    49    27    32 2   
    50    28    29 2   
    51    28    30 1   
    52    30    31 2   
    53    30    32 1   
    54    32    33 1   
    55    33    50 1   
    56    36    51 1   
    57    37    51 1   
    58    52    54 1   
    59    52    55 1   
@<TRIPOS>SUBSTRUCTURE
     1 5NX         1 TEMP              0 ****  ****    0 ROOT
