@<TRIPOS>MOLECULE
5NX
   55    59     1     0     0
SMALL
No Charge or Current Charge


@<TRIPOS>ATOM
      1 C4           1.4460    -2.0820    -0.0930 cc         1 5NX       0.236400
      2 C5           2.0540    -1.0230     0.5270 cd         1 5NX      -0.365600
      3 C6           3.4800    -0.7350     0.3410 c          1 5NX       0.636600
      4 C8          -0.1210    -1.0440     1.1280 cc         1 5NX      -0.030300
      5 N1           4.0600    -1.6380    -0.4820 ns         1 5NX      -0.448400
      6 N3           2.1230    -2.9510    -0.9150 nc         1 5NX      -0.703100
      7 CAL          1.2680     2.1880    -0.1740 ca         1 5NX      -0.074000
      8 CAU          1.3200     3.4140    -0.8570 ca         1 5NX       0.114000
      9 Cl           1.3180     3.4360    -2.6150 cl         1 5NX      -0.172000
     10 CAJ          1.3780     4.6210    -0.1440 ca         1 5NX      -0.068000
     11 CAI          1.3830     4.6020     1.2610 ca         1 5NX      -0.096000
     12 CAK          1.3360     3.3760     1.9480 ca         1 5NX      -0.090000
     13 CAV          1.2810     2.1580     1.2420 ca         1 5NX      -0.147300
     14 N7           1.0740    -0.3840     1.2580 na         1 5NX       0.076300
     15 O6           4.0900     0.1900     0.8470 o          1 5NX      -0.486000
     16 C2           3.3920    -2.6570    -1.0450 cd         1 5NX       0.785800
     17 N9           0.0960    -2.0980     0.2480 na         1 5NX       0.019000
     18 CBG         -0.8820    -3.0940    -0.2090 c5         1 5NX       0.309300
     19 OAS         -1.6160    -2.5800    -1.3540 os         1 5NX      -0.451000
     20 CBE         -1.9590    -3.5930     0.8320 c5         1 5NX       0.081300
     21 OAG         -1.6620    -4.8800     1.4150 oh         1 5NX      -0.694000
     22 CBD         -3.2450    -3.6850    -0.0450 c5         1 5NX       0.121300
     23 OAF         -3.2760    -4.9500    -0.7140 oh         1 5NX      -0.698000
     24 CBF         -3.0250    -2.4850    -1.0180 c5         1 5NX       0.136300
     25 CAN         -3.3710    -1.0870    -0.4130 c3         1 5NX       0.217800
     26 NAQ         -2.8420     0.0390    -1.2160 nu         1 5NX      -0.778200
     27 CAX         -2.5510     1.3170    -0.7470 cc         1 5NX       0.047800
     28 CBA         -2.4280     1.8740     0.6340 c          1 5NX       0.484300
     29 OAD         -2.4910     1.4440     1.7890 o          1 5NX      -0.545100
     30 CAZ         -2.1600     3.2560    -0.0290 c          1 5NX       0.464300
     31 OAC         -1.9620     4.4080     0.3510 o          1 5NX      -0.474100
     32 CAW         -2.3010     2.5460    -1.3220 cd         1 5NX      -0.057100
     33 OAE         -2.2510     3.0550    -2.5850 oh         1 5NX      -0.479100
     34 H1          -1.0510    -0.7700     1.6110 h5         1 5NX       0.246000
     35 H2           5.0340    -1.4970    -0.6860 hn         1 5NX       0.351500
     36 H3           5.0300    -3.6550    -1.5570 hn         1 5NX       0.532500
     37 H4           3.5470    -4.2940    -2.0880 hn         1 5NX       0.532500
     38 H6           1.4190     5.5680    -0.6770 ha         1 5NX       0.145000
     39 H7           1.4270     5.5360     1.8170 ha         1 5NX       0.142000
     40 H8           1.3490     3.3760     3.0370 ha         1 5NX       0.125000
     41 H11         -0.2830    -3.9520    -0.5390 h2         1 5NX       0.137700
     42 H12         -2.1090    -2.8490     1.6270 h1         1 5NX       0.056700
     43 H13         -1.2500    -4.7280     2.3030 ho         1 5NX       0.533000
     44 H14         -4.1540    -3.5510     0.5600 h1         1 5NX       0.072700
     45 H15         -2.7350    -5.5280    -0.1160 ho         1 5NX       0.534000
     46 H16         -3.6160    -2.6070    -1.9360 h1         1 5NX       0.108700
     47 H17         -4.4640    -1.0080    -0.3440 h1         1 5NX       0.074700
     48 H18         -2.9920    -1.0250     0.6130 h1         1 5NX       0.074700
     49 H19         -2.7660    -0.0970    -2.2310 hn         1 5NX       0.519000
     50 H20         -2.0670     4.0220    -2.5290 ho         1 5NX       0.500000
     51 N2           4.0730    -3.4700    -1.8290 nv         1 5NX      -1.021200
     52 CAO          1.2670     0.8490     2.0440 c3         1 5NX       0.114900
     53 H5           1.2270     1.2740    -0.7600 ha         1 5NX       0.145000
     54 H9           2.2080     0.7590     2.5990 h1         1 5NX       0.101200
     55 H10          0.4660     0.9050     2.7920 h1         1 5NX       0.101200
@<TRIPOS>BOND
     1     1     2 2   
     2     1     6 1   
     3     1    17 1   
     4     2     3 1   
     5     2    14 1   
     6     3     5 1   
     7     3    15 2   
     8     4    14 2   
     9     4    17 1   
    10     4    34 1   
    11     5    16 1   
    12     5    35 1   
    13     6    16 2   
    14     7     8 ar  
    15     7    13 ar  
    16     7    53 1   
    17     8     9 1   
    18     8    10 ar  
    19    10    11 ar  
    20    10    38 1   
    21    11    12 ar  
    22    11    39 1   
    23    12    13 ar  
    24    12    40 1   
    25    13    52 1   
    26    14    52 1   
    27    16    51 1   
    28    17    18 1   
    29    18    19 1   
    30    18    20 1   
    31    18    41 1   
    32    19    24 1   
    33    20    21 1   
    34    20    22 1   
    35    20    42 1   
    36    21    43 1   
    37    22    23 1   
    38    22    24 1   
    39    22    44 1   
    40    23    45 1   
    41    24    25 1   
    42    24    46 1   
    43    25    26 1   
    44    25    47 1   
    45    25    48 1   
    46    26    27 1   
    47    26    49 1   
    48    27    28 1   
    49    27    32 2   
    50    28    29 2   
    51    28    30 1   
    52    30    31 2   
    53    30    32 1   
    54    32    33 1   
    55    33    50 1   
    56    36    51 1   
    57    37    51 1   
    58    52    54 1   
    59    52    55 1   
@<TRIPOS>SUBSTRUCTURE
     1 5NX         1 TEMP              0 ****  ****    0 ROOT
