@<TRIPOS>MOLECULE
5NY
   64    70     1     0     0
SMALL
No Charge or Current Charge


@<TRIPOS>ATOM
      1 Cl           4.4860    -2.3240    -0.2980 cl         1 5NY      -0.163000
      2 C25          3.7650    -0.7350    -0.0270 ca         1 5NY       0.165000
      3 C24          4.6360     0.3000     0.3570 ca         1 5NY      -0.121000
      4 C23          4.1500     1.5890     0.6390 ca         1 5NY       0.028800
      5 N2           5.0230     2.6120     1.0180 na         1 5NY      -0.286800
      6 C27          4.8820     3.9400     0.7150 cc         1 5NY       0.383400
      7 N4           5.9100     4.5830     1.2540 nd         1 5NY      -0.350000
      8 N3           6.7090     3.6590     1.9070 nd         1 5NY      -0.350000
      9 C26          6.1640     2.4580     1.7600 cc         1 5NY       0.383400
     10 C22          2.7690     1.8310     0.5330 ca         1 5NY      -0.120000
     11 C21          1.8900     0.8030     0.1540 ca         1 5NY      -0.059000
     12 C20          2.3720    -0.4970    -0.1340 ca         1 5NY      -0.151600
     13 C19          1.4080    -1.5810    -0.5550 c          1 5NY       0.620700
     14 O            1.6970    -2.4610    -1.3530 o          1 5NY      -0.554100
     15 N1           0.1340    -1.4530    -0.0390 ns         1 5NY      -0.508900
     16 C10         -1.0270    -2.3290    -0.2950 c6         1 5NY       0.179700
     17 C9          -2.1800    -1.9070     0.6740 c6         1 5NY       0.058600
     18 N           -2.7110    -0.5710     0.3310 na         1 5NY      -0.083700
     19 C4          -3.4050     0.2350     1.2170 ca         1 5NY      -0.059200
     20 C3          -3.7780    -0.0150     2.5460 ca         1 5NY      -0.111000
     21 C2          -4.4890     0.9890     3.2340 ca         1 5NY      -0.095000
     22 C13         -0.6360    -3.7970     0.0250 ca         1 5NY      -0.097300
     23 C18         -0.0640    -4.0970     1.2840 ca         1 5NY      -0.091500
     24 C17          0.2980    -5.4130     1.6180 ca         1 5NY      -0.107000
     25 C16          0.0920    -6.4530     0.7000 ca         1 5NY      -0.096000
     26 C15         -0.4770    -6.1750    -0.5520 ca         1 5NY      -0.107000
     27 C14         -0.8400    -4.8590    -0.8900 ca         1 5NY      -0.091500
     28 C11         -1.5290    -2.0850    -1.7630 c6         1 5NY      -0.088400
     29 C12         -1.8330    -0.5870    -2.0750 c6         1 5NY      -0.030200
     30 C8          -2.5660     0.0490    -0.9150 cc         1 5NY       0.036700
     31 C7          -3.1750     1.2980    -0.7620 cd         1 5NY      -0.255000
     32 C5          -3.7180     1.4140     0.5880 ca         1 5NY      -0.060800
     33 C6          -4.4260     2.4300     1.2520 ca         1 5NY      -0.083000
     34 C1          -4.8160     2.2100     2.5930 ca         1 5NY      -0.082300
     35 C           -5.5810     3.2850     3.3480 c3         1 5NY      -0.046800
     36 C28         -3.1910     2.2700    -1.8360 cd         1 5NY       0.516300
     37 N8          -3.7600     3.5070    -1.7440 na         1 5NY      -0.219700
     38 N7          -3.5940     4.1670    -2.9210 nd         1 5NY      -0.210800
     39 N6          -2.9410     3.3330    -3.6830 nc         1 5NY      -0.043000
     40 N5          -2.6720     2.1470    -3.0410 nc         1 5NY      -0.420000
     41 H20          5.6990     0.0860     0.4280 ha         1 5NY       0.146000
     42 H22          4.0720     4.3550     0.1270 h5         1 5NY       0.069100
     43 H21          6.5220     1.5130     2.1510 h5         1 5NY       0.069100
     44 H19          2.3620     2.8160     0.7500 ha         1 5NY       0.139000
     45 H18          0.8320     1.0420     0.0620 ha         1 5NY       0.138000
     46 H17          0.0020    -0.6920     0.6130 hn         1 5NY       0.324500
     47 H7          -3.0020    -2.6330     0.6060 h1         1 5NY       0.071200
     48 H6          -1.8200    -1.9040     1.7110 h1         1 5NY       0.071200
     49 H4          -3.5310    -0.9530     3.0380 ha         1 5NY       0.118000
     50 H3          -4.7870     0.8200     4.2660 ha         1 5NY       0.116000
     51 H16          0.1070    -3.3060     2.0110 ha         1 5NY       0.112000
     52 H15          0.7390    -5.6250     2.5890 ha         1 5NY       0.116000
     53 H14          0.3720    -7.4720     0.9580 ha         1 5NY       0.117000
     54 H13         -0.6390    -6.9810    -1.2650 ha         1 5NY       0.116000
     55 H12         -1.2790    -4.6870    -1.8680 ha         1 5NY       0.112000
     56 H9          -0.7920    -2.4550    -2.4880 hc         1 5NY       0.071200
     57 H8          -2.4450    -2.6680    -1.9310 hc         1 5NY       0.071200
     58 H11         -0.8950    -0.0500    -2.2700 hc         1 5NY       0.086200
     59 H10         -2.4240    -0.5290    -2.9990 hc         1 5NY       0.086200
     60 H5          -4.6780     3.3650     0.7650 ha         1 5NY       0.104000
     61 H2          -4.8920     3.9950     3.8210 hc         1 5NY       0.043700
     62 H1          -6.2390     3.8530     2.6790 hc         1 5NY       0.043700
     63 H           -6.2090     2.8530     4.1360 hc         1 5NY       0.043700
     64 H23         -4.2360     3.9070    -0.9500 hn         1 5NY       0.386000
@<TRIPOS>BOND
     1     1     2 1   
     2     2     3 ar  
     3     2    12 ar  
     4     3     4 ar  
     5     3    41 1   
     6     4     5 1   
     7     4    10 ar  
     8     5     6 1   
     9     5     9 1   
    10     6     7 2   
    11     6    42 1   
    12     7     8 1   
    13     8     9 2   
    14     9    43 1   
    15    10    11 ar  
    16    10    44 1   
    17    11    12 ar  
    18    11    45 1   
    19    12    13 1   
    20    13    14 2   
    21    13    15 1   
    22    15    16 1   
    23    15    46 1   
    24    16    17 1   
    25    16    22 1   
    26    16    28 1   
    27    17    18 1   
    28    17    47 1   
    29    17    48 1   
    30    18    19 1   
    31    18    30 1   
    32    19    20 ar  
    33    19    32 ar  
    34    20    21 ar  
    35    20    49 1   
    36    21    34 ar  
    37    21    50 1   
    38    22    23 ar  
    39    22    27 ar  
    40    23    24 ar  
    41    23    51 1   
    42    24    25 ar  
    43    24    52 1   
    44    25    26 ar  
    45    25    53 1   
    46    26    27 ar  
    47    26    54 1   
    48    27    55 1   
    49    28    29 1   
    50    28    56 1   
    51    28    57 1   
    52    29    30 1   
    53    29    58 1   
    54    29    59 1   
    55    30    31 2   
    56    31    32 1   
    57    31    36 1   
    58    32    33 ar  
    59    33    34 ar  
    60    33    60 1   
    61    34    35 1   
    62    35    61 1   
    63    35    62 1   
    64    35    63 1   
    65    36    37 1   
    66    36    40 2   
    67    37    38 1   
    68    37    64 1   
    69    38    39 2   
    70    39    40 1   
@<TRIPOS>SUBSTRUCTURE
     1 5NY         1 TEMP              0 ****  ****    0 ROOT
