@<TRIPOS>MOLECULE
5NY
   64    70     1     0     0
SMALL
abcg2


@<TRIPOS>ATOM
      1 CL           3.7440    -2.4160     0.8630 cl         1 5NY      -0.163000
      2 C25          3.4690    -0.7520     0.4910 ca         1 5NY       0.165000
      3 C24          4.4100     0.1800     0.8910 ca         1 5NY      -0.121000
      4 C23          4.1810     1.5220     0.6250 ca         1 5NY       0.028800
      5 N2           5.1350     2.4760     1.0320 na         1 5NY      -0.286800
      6 C27          5.5600     3.5700     0.3460 cc         1 5NY       0.383400
      7 N4           6.4500     4.2120     1.0380 nd         1 5NY      -0.350000
      8 N3           6.6230     3.5440     2.2090 nd         1 5NY      -0.350000
      9 C26          5.8390     2.5110     2.1940 cc         1 5NY       0.383400
     10 C22          3.0280     1.9320    -0.0270 ca         1 5NY      -0.120000
     11 C21          2.1050     0.9810    -0.4260 ca         1 5NY      -0.059000
     12 C20          2.3120    -0.3710    -0.1780 ca         1 5NY      -0.151600
     13 C19          1.3240    -1.3870    -0.6710 c          1 5NY       0.620700
     14 O            1.6060    -2.1740    -1.5530 o          1 5NY      -0.554100
     15 N1           0.1320    -1.3210    -0.0550 ns         1 5NY      -0.508900
     16 C10         -0.9760    -2.2300    -0.3300 c6         1 5NY       0.179700
     17 C9          -2.0940    -1.8710     0.6510 c6         1 5NY       0.058600
     18 N           -2.6200    -0.5500     0.3730 na         1 5NY      -0.083700
     19 C4          -3.3340     0.2110     1.2680 ca         1 5NY      -0.059200
     20 C3          -3.6450    -0.0400     2.5990 ca         1 5NY      -0.111000
     21 C2          -4.3750     0.9180     3.2750 ca         1 5NY      -0.095000
     22 C13         -0.5680    -3.6710    -0.0500 ca         1 5NY      -0.097300
     23 C18          0.2260    -3.9530     1.0600 ca         1 5NY      -0.091500
     24 C17          0.5720    -5.2580     1.3740 ca         1 5NY      -0.107000
     25 C16          0.1260    -6.3090     0.5820 ca         1 5NY      -0.096000
     26 C15         -0.6690    -6.0380    -0.5220 ca         1 5NY      -0.107000
     27 C14         -1.0150    -4.7290    -0.8330 ca         1 5NY      -0.091500
     28 C11         -1.5250    -1.9990    -1.7440 c6         1 5NY      -0.088400
     29 C12         -1.8490    -0.5300    -1.9800 c6         1 5NY      -0.030200
     30 C8          -2.5670     0.0820    -0.8280 cc         1 5NY       0.036700
     31 C7          -3.2450     1.2830    -0.7330 cd         1 5NY      -0.255000
     32 C5          -3.7450     1.3830     0.6100 ca         1 5NY      -0.060800
     33 C6          -4.4760     2.3360     1.3270 ca         1 5NY      -0.083000
     34 C1          -4.7930     2.1100     2.6570 ca         1 5NY      -0.082300
     35 C           -5.5540     3.1350     3.4490 c3         1 5NY      -0.046800
     36 C28         -3.3810     2.2250    -1.8060 cd         1 5NY       0.516300
     37 N8          -4.2590     3.2350    -1.8700 na         1 5NY      -0.219700
     38 N7          -4.0940     3.8880    -3.0110 nd         1 5NY      -0.210800
     39 N6          -3.1500     3.2980    -3.6260 nc         1 5NY      -0.043000
     40 N5          -2.6760     2.2720    -2.9230 nc         1 5NY      -0.420000
     41 H20          5.3150    -0.1420     1.3890 ha         1 5NY       0.146000
     42 H22          5.2060     3.8280    -0.6390 h5         1 5NY       0.069100
     43 H21          5.7220     1.7850     2.9830 h5         1 5NY       0.069100
     44 H19          2.8360     2.9810    -0.2100 ha         1 5NY       0.139000
     45 H18          1.2060     1.3020    -0.9370 ha         1 5NY       0.138000
     46 H17          0.0390    -0.6720     0.7110 hn         1 5NY       0.324500
     47 H7          -2.8890    -2.6160     0.5750 h1         1 5NY       0.071200
     48 H6          -1.7210    -1.8910     1.6770 h1         1 5NY       0.071200
     49 H4          -3.3350    -0.9500     3.0970 ha         1 5NY       0.118000
     50 H3          -4.6340     0.7460     4.3130 ha         1 5NY       0.116000
     51 H16          0.5930    -3.1470     1.6840 ha         1 5NY       0.112000
     52 H15          1.1940    -5.4530     2.2380 ha         1 5NY       0.116000
     53 H14          0.3970    -7.3280     0.8240 ha         1 5NY       0.117000
     54 H13         -1.0210    -6.8460    -1.1500 ha         1 5NY       0.116000
     55 H12         -1.6360    -4.5500    -1.7000 ha         1 5NY       0.112000
     56 H9          -0.8180    -2.3450    -2.4960 hc         1 5NY       0.071200
     57 H8          -2.4360    -2.5880    -1.8650 hc         1 5NY       0.071200
     58 H11         -0.9390     0.0420    -2.1830 hc         1 5NY       0.086200
     59 H10         -2.4570    -0.4290    -2.8800 hc         1 5NY       0.086200
     60 H5          -4.8010     3.2620     0.8680 ha         1 5NY       0.104000
     61 H2          -4.8830     3.7200     4.0810 hc         1 5NY       0.043700
     62 H1          -6.0810     3.8330     2.8000 hc         1 5NY       0.043700
     63 H           -6.2880     2.6680     4.1060 hc         1 5NY       0.043700
     64 H23         -4.9890     3.5090    -1.2300 hn         1 5NY       0.386000
@<TRIPOS>BOND
     1     1     2 1   
     2     2     3 ar  
     3     2    12 ar  
     4     3     4 ar  
     5     3    41 1   
     6     4     5 1   
     7     4    10 ar  
     8     5     6 1   
     9     5     9 1   
    10     6     7 2   
    11     6    42 1   
    12     7     8 1   
    13     8     9 2   
    14     9    43 1   
    15    10    11 ar  
    16    10    44 1   
    17    11    12 ar  
    18    11    45 1   
    19    12    13 1   
    20    13    14 2   
    21    13    15 1   
    22    15    16 1   
    23    15    46 1   
    24    16    17 1   
    25    16    22 1   
    26    16    28 1   
    27    17    18 1   
    28    17    47 1   
    29    17    48 1   
    30    18    19 1   
    31    18    30 1   
    32    19    20 ar  
    33    19    32 ar  
    34    20    21 ar  
    35    20    49 1   
    36    21    34 ar  
    37    21    50 1   
    38    22    23 ar  
    39    22    27 ar  
    40    23    24 ar  
    41    23    51 1   
    42    24    25 ar  
    43    24    52 1   
    44    25    26 ar  
    45    25    53 1   
    46    26    27 ar  
    47    26    54 1   
    48    27    55 1   
    49    28    29 1   
    50    28    56 1   
    51    28    57 1   
    52    29    30 1   
    53    29    58 1   
    54    29    59 1   
    55    30    31 2   
    56    31    32 1   
    57    31    36 1   
    58    32    33 ar  
    59    33    34 ar  
    60    33    60 1   
    61    34    35 1   
    62    35    61 1   
    63    35    62 1   
    64    35    63 1   
    65    36    37 1   
    66    36    40 2   
    67    37    38 1   
    68    37    64 1   
    69    38    39 2   
    70    39    40 1   
@<TRIPOS>SUBSTRUCTURE
     1 5NY         1 TEMP              0 ****  ****    0 ROOT
