@<TRIPOS>MOLECULE
5NZ
   92    99     1     0     0
SMALL
No Charge or Current Charge


@<TRIPOS>ATOM
      1 N2          36.6040    21.4260     4.4420 nv         1 5NZ      -0.587700
      2 C8          37.0150    22.4900     5.1760 cc         1 5NZ       0.375900
      3 C7          38.2910    23.0570     4.9370 cc         1 5NZ      -0.300600
      4 C6          38.7360    24.1330     5.6780 cd         1 5NZ      -0.088200
      5 C5          37.8850    24.6960     6.7100 cd         1 5NZ      -0.089800
      6 C19         36.1640    23.0160     6.1790 cc         1 5NZ      -0.388600
      7 C18         36.5790    24.1080     6.9370 cd         1 5NZ      -0.009000
      8 N3          35.6860    24.5880     7.9330 na         1 5NZ       0.090000
      9 C11         36.1520    25.6130     8.7800 cc         1 5NZ       0.121000
     10 C12         35.3160    26.0460     9.9060 ca         1 5NZ      -0.135000
     11 C13         35.4370    25.4170    11.1600 ca         1 5NZ      -0.080000
     12 C14         34.6250    25.8190    12.2350 ca         1 5NZ      -0.102000
     13 C15         33.6970    26.8600    12.0650 ca         1 5NZ      -0.071000
     14 C16         33.5830    27.5000    10.8190 ca         1 5NZ      -0.102000
     15 C17         34.3910    27.0960     9.7420 ca         1 5NZ      -0.080000
     16 C10         37.4520    26.2730     8.5740 ca         1 5NZ      -0.075000
     17 C9          37.8470    27.3550     9.4000 ca         1 5NZ      -0.154000
     18 C4          38.3110    25.8400     7.5420 ca         1 5NZ       0.025000
     19 C3          39.5440    26.5090     7.3500 ca         1 5NZ      -0.087000
     20 C2          39.9170    27.5810     8.1760 ca         1 5NZ      -0.086000
     21 C1          39.0710    28.0040     9.2060 ca         1 5NZ       0.312000
     22 N1          39.4300    29.0500    10.0190 nv         1 5NZ      -1.070000
     23 C20         34.3040    24.0520     8.1090 c3         1 5NZ       0.033600
     24 C21         34.2310    22.8160     9.0380 c3         1 5NZ      -0.096400
     25 C22         32.7910    22.5060     9.4950 c3         1 5NZ      -0.074400
     26 C24         32.7160    21.3480    10.5140 c3         1 5NZ      -0.075400
     27 C25         31.2960    21.1640    11.0890 c3         1 5NZ      -0.007100
     28 C26         31.2260    20.1790    12.2280 cc         1 5NZ      -0.178300
     29 N4          31.6870    20.3570    13.5170 na         1 5NZ       0.111800
     30 N5          31.4940    19.2330    14.2650 nc         1 5NZ      -0.202800
     31 N6          30.8760    18.3710    13.5040 nd         1 5NZ      -0.345000
     32 C27         30.6940    18.9200    12.2530 cd         1 5NZ       0.203900
     33 C28         32.3900    21.5230    14.0940 c3         1 5NZ       0.043600
     34 C29         31.7380    22.1150    15.3710 c3         1 5NZ       0.185800
     35 N7          30.6290    23.0560    15.0760 nu         1 5NZ      -0.935200
     36 C30         29.5600    22.8040    14.2010 ca         1 5NZ       0.311000
     37 C31         29.4380    23.5550    13.0090 ca         1 5NZ      -0.125000
     38 C32         30.3690    24.5690    12.6610 ca         1 5NZ      -0.105000
     39 C33         28.3750    23.2530    12.1230 ca         1 5NZ       0.292000
     40 C34         28.2630    23.9700    10.9170 ca         1 5NZ      -0.082000
     41 C35         29.1870    24.9710    10.5780 ca         1 5NZ      -0.110000
     42 C36         30.2410    25.2680    11.4510 ca         1 5NZ      -0.124000
     43 N8          27.4750    22.2870    12.3900 nb         1 5NZ      -0.695000
     44 C37         27.5840    21.5870    13.5360 ca         1 5NZ       0.409300
     45 C38         26.4840    20.5410    13.7370 c6         1 5NZ      -0.131700
     46 C39         28.5970    21.8130    14.4900 ca         1 5NZ      -0.142300
     47 C40         28.6270    21.0030    15.8020 c6         1 5NZ      -0.026100
     48 C41         27.2990    20.2800    16.1170 c6         1 5NZ      -0.073400
     49 C42         26.7860    19.5350    14.8700 c6         1 5NZ      -0.078400
     50 H1          35.6890    21.0230     4.5970 hn         1 5NZ       0.325000
     51 H2          37.1970    21.0490     3.7140 hn         1 5NZ       0.325000
     52 H3          38.9160    22.6240     4.1620 ha         1 5NZ       0.210000
     53 H4          39.7250    24.5260     5.4670 ha         1 5NZ       0.204000
     54 H5          35.2160    22.5090     6.3040 ha         1 5NZ       0.202000
     55 H6          36.1570    24.6130    11.3010 ha         1 5NZ       0.128000
     56 H7          34.7170    25.3250    13.2000 ha         1 5NZ       0.137000
     57 H8          33.0700    27.1730    12.8970 ha         1 5NZ       0.137000
     58 H9          32.8670    28.3090    10.6870 ha         1 5NZ       0.137000
     59 H10         34.2970    27.5950     8.7790 ha         1 5NZ       0.128000
     60 H11         37.2020    27.7040    10.2000 ha         1 5NZ       0.138000
     61 H12         40.2330    26.2220     6.5650 ha         1 5NZ       0.136000
     62 H13         40.8670    28.0820     8.0120 ha         1 5NZ       0.139000
     63 H14         38.8810    29.2580    10.8520 hn         1 5NZ       0.475000
     64 H15         40.3750    29.4290     9.9790 hn         1 5NZ       0.475000
     65 H16         33.6680    24.8400     8.5270 h1         1 5NZ       0.087700
     66 H17         33.8530    23.8310     7.1350 h1         1 5NZ       0.087700
     67 H18         34.6580    21.9410     8.5340 hc         1 5NZ       0.061700
     68 H19         34.8470    22.9970     9.9250 hc         1 5NZ       0.061700
     69 H20         32.3650    23.4090     9.9520 hc         1 5NZ       0.047700
     70 H21         32.1710    22.2660     8.6220 hc         1 5NZ       0.047700
     71 H22         33.0420    20.4140    10.0400 hc         1 5NZ       0.049700
     72 H23         33.4150    21.5500    11.3340 hc         1 5NZ       0.049700
     73 H24         30.9300    22.1360    11.4250 hc         1 5NZ       0.064200
     74 H25         30.6210    20.8490    10.2830 hc         1 5NZ       0.064200
     75 H26         30.2090    18.3770    11.4510 h4         1 5NZ       0.052100
     76 H27         33.4050    21.1930    14.3480 h1         1 5NZ       0.065200
     77 H28         32.4840    22.3110    13.3380 h1         1 5NZ       0.065200
     78 H29         31.4030    21.2980    16.0230 h1         1 5NZ       0.078200
     79 H30         32.5180    22.6520    15.9300 h1         1 5NZ       0.078200
     80 H31         30.9080    24.0370    15.0770 hn         1 5NZ       0.447000
     81 H32         31.2060    24.8170    13.3080 ha         1 5NZ       0.096000
     82 H33         27.4500    23.7390    10.2340 ha         1 5NZ       0.134000
     83 H34         29.0870    25.5110     9.6390 ha         1 5NZ       0.116000
     84 H35         30.9620    26.0390    11.1890 ha         1 5NZ       0.108000
     85 H36         25.5450    21.0640    13.9620 hc         1 5NZ       0.065200
     86 H37         26.3120    19.9920    12.8010 hc         1 5NZ       0.065200
     87 H38         29.4200    20.2490    15.7400 hc         1 5NZ       0.056200
     88 H39         28.8850    21.6550    16.6480 hc         1 5NZ       0.056200
     89 H40         26.5470    21.0080    16.4510 hc         1 5NZ       0.047200
     90 H41         27.4450    19.5750    16.9470 hc         1 5NZ       0.047200
     91 H42         25.8830    18.9590    15.1140 hc         1 5NZ       0.053700
     92 H43         27.5420    18.8100    14.5350 hc         1 5NZ       0.053700
@<TRIPOS>BOND
     1     1     2 2   
     2     1    50 1   
     3     1    51 1   
     4     2     3 1   
     5     2     6 1   
     6     3     4 2   
     7     3    52 1   
     8     4     5 1   
     9     4    53 1   
    10     5     7 1   
    11     5    18 2   
    12     6     7 2   
    13     6    54 1   
    14     7     8 1   
    15     8     9 1   
    16     8    23 1   
    17     9    10 1   
    18     9    16 2   
    19    10    11 ar  
    20    10    15 ar  
    21    11    12 ar  
    22    11    55 1   
    23    12    13 ar  
    24    12    56 1   
    25    13    14 ar  
    26    13    57 1   
    27    14    15 ar  
    28    14    58 1   
    29    15    59 1   
    30    16    17 ar  
    31    16    18 ar  
    32    17    21 ar  
    33    17    60 1   
    34    18    19 ar  
    35    19    20 ar  
    36    19    61 1   
    37    20    21 ar  
    38    20    62 1   
    39    21    22 1   
    40    22    63 1   
    41    22    64 1   
    42    23    24 1   
    43    23    65 1   
    44    23    66 1   
    45    24    25 1   
    46    24    67 1   
    47    24    68 1   
    48    25    26 1   
    49    25    69 1   
    50    25    70 1   
    51    26    27 1   
    52    26    71 1   
    53    26    72 1   
    54    27    28 1   
    55    27    73 1   
    56    27    74 1   
    57    28    29 1   
    58    28    32 2   
    59    29    30 1   
    60    29    33 1   
    61    30    31 2   
    62    31    32 1   
    63    32    75 1   
    64    33    34 1   
    65    33    76 1   
    66    33    77 1   
    67    34    35 1   
    68    34    78 1   
    69    34    79 1   
    70    35    36 1   
    71    35    80 1   
    72    36    37 ar  
    73    36    46 ar  
    74    37    38 ar  
    75    37    39 ar  
    76    38    42 ar  
    77    38    81 1   
    78    39    40 ar  
    79    39    43 ar  
    80    40    41 ar  
    81    40    82 1   
    82    41    42 ar  
    83    41    83 1   
    84    42    84 1   
    85    43    44 ar  
    86    44    45 1   
    87    44    46 ar  
    88    45    49 1   
    89    45    85 1   
    90    45    86 1   
    91    46    47 1   
    92    47    48 1   
    93    47    87 1   
    94    47    88 1   
    95    48    49 1   
    96    48    89 1   
    97    48    90 1   
    98    49    91 1   
    99    49    92 1   
@<TRIPOS>SUBSTRUCTURE
     1 5NZ         1 TEMP              0 ****  ****    0 ROOT
