@<TRIPOS>MOLECULE
5NZ
   92    99     1     0     0
SMALL
abcg2


@<TRIPOS>ATOM
      1 N2          35.0460    21.7440     4.8820 nv         1 5NZ      -0.587700
      2 C8          35.8820    22.6790     5.4360 cc         1 5NZ       0.375900
      3 C7          37.1940    22.8430     4.9300 cc         1 5NZ      -0.300600
      4 C6          38.0540    23.7340     5.5060 cd         1 5NZ      -0.088200
      5 C5          37.6820    24.5220     6.6190 cd         1 5NZ      -0.089800
      6 C19         35.4860    23.4440     6.5270 cc         1 5NZ      -0.388600
      7 C18         36.3670    24.3580     7.1170 cd         1 5NZ      -0.009000
      8 N3          35.9610    25.1320     8.2140 na         1 5NZ       0.090000
      9 C11         36.7730    26.0130     8.8040 cc         1 5NZ       0.121000
     10 C12         36.2730    26.7990     9.9630 ca         1 5NZ      -0.135000
     11 C13         36.4060    26.3020    11.2580 ca         1 5NZ      -0.080000
     12 C14         35.9640    27.0580    12.3380 ca         1 5NZ      -0.102000
     13 C15         35.3960    28.3100    12.1290 ca         1 5NZ      -0.071000
     14 C16         35.2760    28.8110    10.8370 ca         1 5NZ      -0.102000
     15 C17         35.7180    28.0610     9.7540 ca         1 5NZ      -0.080000
     16 C10         38.1000    26.2140     8.3470 ca         1 5NZ      -0.075000
     17 C9          38.9440    27.1470     8.9910 ca         1 5NZ      -0.154000
     18 C4          38.5660    25.4570     7.2400 ca         1 5NZ       0.025000
     19 C3          39.8970    25.6750     6.8190 ca         1 5NZ      -0.087000
     20 C2          40.7010    26.5860     7.4490 ca         1 5NZ      -0.086000
     21 C1          40.2390    27.3490     8.5540 ca         1 5NZ       0.312000
     22 N1          41.0660    28.2930     9.1230 nv         1 5NZ      -1.070000
     23 C20         34.5880    24.9340     8.7440 c3         1 5NZ       0.033600
     24 C21         34.4900    23.7150     9.6540 c3         1 5NZ      -0.096400
     25 C22         33.0560    23.5030    10.1280 c3         1 5NZ      -0.074400
     26 C24         32.9220    22.2930    11.0480 c3         1 5NZ      -0.075400
     27 C25         31.4730    22.0870    11.5090 c3         1 5NZ      -0.007100
     28 C26         31.3110    20.9110    12.4050 cc         1 5NZ      -0.178300
     29 N4          31.5310    20.9140    13.7450 na         1 5NZ       0.111800
     30 N5          31.3690    19.6840    14.2640 nc         1 5NZ      -0.202800
     31 N6          31.0440    18.8840    13.2860 nd         1 5NZ      -0.345000
     32 C27         30.9970    19.5970    12.1330 cd         1 5NZ       0.203900
     33 C28         31.8240    22.0340    14.6310 c3         1 5NZ       0.043600
     34 C29         30.6650    22.3640    15.5790 c3         1 5NZ       0.185800
     35 N7          29.4740    22.9130    14.9360 nu         1 5NZ      -0.935200
     36 C30         28.7070    22.2150    14.0140 ca         1 5NZ       0.311000
     37 C31         28.3920    22.8340    12.7580 ca         1 5NZ      -0.125000
     38 C32         28.7790    24.1480    12.4020 ca         1 5NZ      -0.105000
     39 C33         27.6700    22.0610    11.8070 ca         1 5NZ       0.292000
     40 C34         27.3780    22.6250    10.5400 ca         1 5NZ      -0.082000
     41 C35         27.7650    23.9020    10.2280 ca         1 5NZ      -0.110000
     42 C36         28.4700    24.6750    11.1720 ca         1 5NZ      -0.124000
     43 N8          27.2570    20.7930    12.0560 nb         1 5NZ      -0.695000
     44 C37         27.4850    20.2780    13.2520 ca         1 5NZ       0.409300
     45 C38         26.9040    18.8970    13.4660 c6         1 5NZ      -0.131700
     46 C39         28.1820    20.9510    14.2860 ca         1 5NZ      -0.142300
     47 C40         28.2970    20.3300    15.6580 c6         1 5NZ      -0.026100
     48 C41         27.2650    19.2350    15.9080 c6         1 5NZ      -0.073400
     49 C42         27.3160    18.2220    14.7700 c6         1 5NZ      -0.078400
     50 H1          34.0610    21.8190     5.0820 hn         1 5NZ       0.325000
     51 H2          35.2600    21.4260     3.9500 hn         1 5NZ       0.325000
     52 H3          37.5090    22.2530     4.0780 ha         1 5NZ       0.210000
     53 H4          39.0460    23.8370     5.0900 ha         1 5NZ       0.204000
     54 H5          34.4860    23.3030     6.9020 ha         1 5NZ       0.202000
     55 H6          36.8580    25.3320    11.4190 ha         1 5NZ       0.128000
     56 H7          36.0670    26.6670    13.3420 ha         1 5NZ       0.137000
     57 H8          35.0520    28.8960    12.9720 ha         1 5NZ       0.137000
     58 H9          34.8410    29.7880    10.6700 ha         1 5NZ       0.137000
     59 H10         35.6290    28.4490     8.7470 ha         1 5NZ       0.128000
     60 H11         38.5740    27.7080     9.8360 ha         1 5NZ       0.138000
     61 H12         40.3020    25.1170     5.9880 ha         1 5NZ       0.136000
     62 H13         41.7180    26.7330     7.1040 ha         1 5NZ       0.139000
     63 H14         40.8220    28.6080    10.0490 hn         1 5NZ       0.475000
     64 H15         42.0570    28.1620     8.9910 hn         1 5NZ       0.475000
     65 H16         34.3140    25.8310     9.2870 h1         1 5NZ       0.087700
     66 H17         33.9150    24.8590     7.8950 h1         1 5NZ       0.087700
     67 H18         34.8430    22.8250     9.1300 hc         1 5NZ       0.061700
     68 H19         35.1490    23.8590    10.5130 hc         1 5NZ       0.061700
     69 H20         32.7080    24.3980    10.6520 hc         1 5NZ       0.047700
     70 H21         32.4010    23.3730     9.2600 hc         1 5NZ       0.047700
     71 H22         33.2680    21.3940    10.5310 hc         1 5NZ       0.049700
     72 H23         33.5670    22.4220    11.9220 hc         1 5NZ       0.049700
     73 H24         31.1190    22.9900    12.0060 hc         1 5NZ       0.064200
     74 H25         30.8280    21.9410    10.6400 hc         1 5NZ       0.064200
     75 H26         30.7440    19.1460    11.1880 h4         1 5NZ       0.052100
     76 H27         32.7030    21.7760    15.2220 h1         1 5NZ       0.065200
     77 H28         32.0700    22.8920    14.0090 h1         1 5NZ       0.065200
     78 H29         30.4210    21.4830    16.1630 h1         1 5NZ       0.078200
     79 H30         31.0240    23.1210    16.2760 h1         1 5NZ       0.078200
     80 H31         29.6350    23.8700    14.6670 hn         1 5NZ       0.447000
     81 H32         29.3390    24.7660    13.0910 ha         1 5NZ       0.096000
     82 H33         26.8340    22.0130     9.8310 ha         1 5NZ       0.134000
     83 H34         27.5310    24.3210     9.2570 ha         1 5NZ       0.116000
     84 H35         28.7790    25.6820    10.9250 ha         1 5NZ       0.108000
     85 H36         25.8140    19.0030    13.4440 hc         1 5NZ       0.065200
     86 H37         27.1650    18.2840    12.6010 hc         1 5NZ       0.065200
     87 H38         29.2900    19.8900    15.7840 hc         1 5NZ       0.056200
     88 H39         28.2100    21.1200    16.4090 hc         1 5NZ       0.056200
     89 H40         26.2610    19.6680    15.9690 hc         1 5NZ       0.047200
     90 H41         27.4690    18.7580    16.8690 hc         1 5NZ       0.047200
     91 H42         26.6620    17.3700    14.9660 hc         1 5NZ       0.053700
     92 H43         28.3350    17.8310    14.6860 hc         1 5NZ       0.053700
@<TRIPOS>BOND
     1     1     2 2   
     2     1    50 1   
     3     1    51 1   
     4     2     3 1   
     5     2     6 1   
     6     3     4 2   
     7     3    52 1   
     8     4     5 1   
     9     4    53 1   
    10     5     7 1   
    11     5    18 2   
    12     6     7 2   
    13     6    54 1   
    14     7     8 1   
    15     8     9 1   
    16     8    23 1   
    17     9    10 1   
    18     9    16 2   
    19    10    11 ar  
    20    10    15 ar  
    21    11    12 ar  
    22    11    55 1   
    23    12    13 ar  
    24    12    56 1   
    25    13    14 ar  
    26    13    57 1   
    27    14    15 ar  
    28    14    58 1   
    29    15    59 1   
    30    16    17 ar  
    31    16    18 ar  
    32    17    21 ar  
    33    17    60 1   
    34    18    19 ar  
    35    19    20 ar  
    36    19    61 1   
    37    20    21 ar  
    38    20    62 1   
    39    21    22 1   
    40    22    63 1   
    41    22    64 1   
    42    23    24 1   
    43    23    65 1   
    44    23    66 1   
    45    24    25 1   
    46    24    67 1   
    47    24    68 1   
    48    25    26 1   
    49    25    69 1   
    50    25    70 1   
    51    26    27 1   
    52    26    71 1   
    53    26    72 1   
    54    27    28 1   
    55    27    73 1   
    56    27    74 1   
    57    28    29 1   
    58    28    32 2   
    59    29    30 1   
    60    29    33 1   
    61    30    31 2   
    62    31    32 1   
    63    32    75 1   
    64    33    34 1   
    65    33    76 1   
    66    33    77 1   
    67    34    35 1   
    68    34    78 1   
    69    34    79 1   
    70    35    36 1   
    71    35    80 1   
    72    36    37 ar  
    73    36    46 ar  
    74    37    38 ar  
    75    37    39 ar  
    76    38    42 ar  
    77    38    81 1   
    78    39    40 ar  
    79    39    43 ar  
    80    40    41 ar  
    81    40    82 1   
    82    41    42 ar  
    83    41    83 1   
    84    42    84 1   
    85    43    44 ar  
    86    44    45 1   
    87    44    46 ar  
    88    45    49 1   
    89    45    85 1   
    90    45    86 1   
    91    46    47 1   
    92    47    48 1   
    93    47    87 1   
    94    47    88 1   
    95    48    49 1   
    96    48    89 1   
    97    48    90 1   
    98    49    91 1   
    99    49    92 1   
@<TRIPOS>SUBSTRUCTURE
     1 5NZ         1 TEMP              0 ****  ****    0 ROOT
