@<TRIPOS>MOLECULE
5O0
   46    48     1     0     0
SMALL
bcc


@<TRIPOS>ATOM
      1 C3          -5.8520    -2.0070    -0.6300 ca         1 5O0      -0.157000
      2 C4          -4.7360    -1.2450    -0.9360 ca         1 5O0      -0.066000
      3 C5          -4.7700     0.1400    -0.8970 ca         1 5O0      -0.003400
      4 C1          -7.0900     0.0420    -0.2530 ca         1 5O0      -0.196000
      5 C2          -7.0190    -1.3370    -0.2970 ca         1 5O0       0.069400
      6 C9           1.8850     3.0520    -0.7890 ca         1 5O0      -0.116000
      7 O5           6.5730    -1.2050    -3.1490 o          1 5O0      -0.819300
      8 O1           1.1900     0.3790     3.3580 o          1 5O0      -0.614300
      9 O2           3.4460     1.3670     2.8790 o          1 5O0      -0.614300
     10 C13          3.3960    -0.7890    -0.4650 ca         1 5O0      -0.154000
     11 C18          4.9790    -0.9560     1.3520 ca         1 5O0      -0.154000
     12 C17          6.0060    -1.0860     0.4290 ca         1 5O0      -0.099500
     13 C19          0.2980     1.2520     0.6310 ca         1 5O0      -0.058000
     14 O4           8.0380    -1.3240    -1.4720 o          1 5O0      -0.819300
     15 O3           2.6340    -0.7400     1.8000 os         1 5O0      -0.425800
     16 C15          5.7530    -1.0670    -0.9400 ca         1 5O0      -0.122600
     17 C14          4.4370    -0.9200    -1.3710 ca         1 5O0      -0.099500
     18 C8           0.6020     2.7670    -1.2110 ca         1 5O0      -0.143000
     19 C10          2.4090     2.4480     0.3460 ca         1 5O0      -0.043000
     20 C11          1.5940     1.5610     1.0270 ca         1 5O0      -0.273500
     21 C12          3.6820    -0.8120     0.8900 ca         1 5O0       0.056100
     22 C7          -0.2130     1.8670    -0.5110 ca         1 5O0       0.059600
     23 N1          -3.6320     0.9050    -1.2280 ns         1 5O0      -0.519100
     24 O           -2.3720     0.2180     0.5300 o          1 5O0      -0.593100
     25 CL          -8.4430    -2.2560     0.0800 cl         1 5O0      -0.122400
     26 C           -5.9560     0.8090    -0.5460 ca         1 5O0       0.158600
     27 N2          -1.4860     1.6500    -1.0180 ns         1 5O0      -0.491100
     28 H1          -5.8130    -3.0860    -0.6620 ha         1 5O0       0.153000
     29 H2          -3.8170    -1.7400    -1.2220 ha         1 5O0       0.152000
     30 H3          -8.0130     0.5360     0.0220 ha         1 5O0       0.144000
     31 H4           2.4870     3.7520    -1.3510 ha         1 5O0       0.137000
     32 H6           2.3740    -0.6800    -0.8080 ha         1 5O0       0.127500
     33 H7           5.1830    -0.9850     2.4140 ha         1 5O0       0.127500
     34 H8           7.0220    -1.2050     0.7810 ha         1 5O0       0.153000
     35 H9          -0.3000     0.5550     1.1940 ha         1 5O0       0.189000
     36 H10          4.2230    -0.9060    -2.4310 ha         1 5O0       0.153000
     37 H11          0.2170     3.2520    -2.1010 ha         1 5O0       0.121000
     38 H12          3.4140     2.6680     0.6730 ha         1 5O0       0.169000
     39 H13         -3.6830     1.4900    -2.0490 hn         1 5O0       0.319500
     40 H14         -6.7880     2.5860    -0.0430 hn         1 5O0       0.401300
     41 H15         -5.1490     2.6630    -0.3740 hn         1 5O0       0.401300
     42 H16         -1.6890     2.1460    -1.8730 hn         1 5O0       0.308500
     43 N           -6.0160     2.1790    -0.5460 nv         1 5O0      -0.829200
     44 C6          -2.4870     0.8720    -0.4900 c          1 5O0       0.794100
     45 S            2.2420     0.7090     2.4260 sy         1 5O0       1.414800
     46 C16          6.8910    -1.2120    -1.9450 c          1 5O0       0.923200
@<TRIPOS>BOND
     1     1     2 ar  
     2     1     5 ar  
     3     1    28 1   
     4     2     3 ar  
     5     2    29 1   
     6     3    23 1   
     7     3    26 ar  
     8     4     5 ar  
     9     4    26 ar  
    10     4    30 1   
    11     5    25 1   
    12     6    18 ar  
    13     6    19 ar  
    14     6    31 1   
    15     7    46 1   
    16     8    45 2   
    17     9    45 2   
    18    10    17 ar  
    19    10    21 ar  
    20    10    32 1   
    21    11    12 ar  
    22    11    21 ar  
    23    11    33 1   
    24    12    16 ar  
    25    12    34 1   
    26    13    20 ar  
    27    13    22 ar  
    28    13    35 1   
    29    14    46 1   
    30    15    21 1   
    31    15    45 1   
    32    16    17 ar  
    33    16    46 1   
    34    17    36 1   
    35    18    22 ar  
    36    18    37 1   
    37    19    20 ar  
    38    19    38 1   
    39    20    45 1   
    40    22    27 1   
    41    23    39 1   
    42    23    44 1   
    43    24    44 2   
    44    26    43 1   
    45    27    42 1   
    46    27    44 1   
    47    40    43 1   
    48    41    43 1   
@<TRIPOS>SUBSTRUCTURE
     1 5O0         1 TEMP              0 ****  ****    0 ROOT
