@<TRIPOS>MOLECULE
5O0
   46    48     1     0     0
SMALL
No Charge or Current Charge


@<TRIPOS>ATOM
      1 C3          -6.2710    -1.6920     0.0580 ca         1 5O0      -0.139000
      2 C4          -5.0160    -1.0640     0.0140 ca         1 5O0      -0.048000
      3 C5          -4.8610     0.1770    -0.6470 ca         1 5O0      -0.096000
      4 C1          -7.2360     0.1290    -1.2230 ca         1 5O0      -0.178000
      5 C2          -7.3780    -1.0950    -0.5590 ca         1 5O0       0.161000
      6 C9           2.0640     2.8220    -0.4350 ca         1 5O0      -0.098000
      7 O5           5.9360    -0.7910    -3.7060 o          1 5O0      -0.714000
      8 O1           1.5500     0.0090     3.7870 o          1 5O0      -0.543500
      9 O2           3.8130     1.1190     3.2710 o          1 5O0      -0.543500
     10 C13          3.3590    -1.1040    -0.3530 ca         1 5O0      -0.136000
     11 C18          5.2830    -0.6640     1.0650 ca         1 5O0      -0.136000
     12 C17          6.1020    -0.5670    -0.0740 ca         1 5O0      -0.081500
     13 C19          0.5180     1.0170     1.0690 ca         1 5O0      -0.040000
     14 O4           7.6320    -0.3820    -2.4530 o          1 5O0      -0.714000
     15 O3           3.1020    -1.0200     2.0280 os         1 5O0      -0.425800
     16 C15          5.5590    -0.7330    -1.3710 ca         1 5O0      -0.122600
     17 C14          4.1750    -1.0050    -1.4940 ca         1 5O0      -0.081500
     18 C8           0.7280     2.5740    -0.7880 ca         1 5O0      -0.125000
     19 C10          2.6340     2.1720     0.6710 ca         1 5O0      -0.025000
     20 C11          1.8620     1.2680     1.4290 ca         1 5O0      -0.273500
     21 C12          3.9100    -0.9220     0.9240 ca         1 5O0       0.056100
     22 C7          -0.0580     1.6730    -0.0440 ca         1 5O0      -0.033000
     23 N1          -3.5880     0.8220    -0.7330 ns         1 5O0      -0.193000
     24 O           -2.3550    -0.0040     1.0320 o          1 5O0      -0.593100
     25 Cl          -8.9470    -1.8880    -0.5040 cl         1 5O0      -0.214000
     26 C           -5.9890     0.7670    -1.2700 ca         1 5O0       0.297000
     27 N2          -1.4010     1.4720    -0.4710 ns         1 5O0      -0.165000
     28 H1          -6.3840    -2.6470     0.5660 ha         1 5O0       0.135000
     29 H2          -4.1710    -1.5640     0.4790 ha         1 5O0       0.134000
     30 H3          -8.1010     0.5810    -1.6990 ha         1 5O0       0.126000
     31 H4           2.6610     3.5170    -1.0210 ha         1 5O0       0.119000
     32 H6           2.2970    -1.3110    -0.4610 ha         1 5O0       0.109500
     33 H7           5.7170    -0.5390     2.0540 ha         1 5O0       0.109500
     34 H8           7.1630    -0.3630     0.0550 ha         1 5O0       0.135000
     35 H9          -0.0570     0.3090     1.6580 ha         1 5O0       0.171000
     36 H10          3.7260    -1.1410    -2.4760 ha         1 5O0       0.135000
     37 H11          0.3020     3.0850    -1.6490 ha         1 5O0       0.103000
     38 H12          3.6750     2.3680     0.9260 ha         1 5O0       0.151000
     39 H13         -3.5030     1.4610    -1.5130 hn         1 5O0       0.153000
     40 H14         -6.7560     2.4290    -2.2320 hn         1 5O0       0.456500
     41 H15         -5.1120     2.5890    -1.7290 hn         1 5O0       0.456500
     42 H16         -1.6420     1.9960    -1.3020 hn         1 5O0       0.142000
     43 N           -5.9000     1.9750    -1.9190 nv         1 5O0      -1.078000
     44 C6          -2.4360     0.6960     0.0300 c          1 5O0       0.660100
     45 S            2.6020     0.4030     2.8380 sy         1 5O0       1.273200
     46 C16          6.4430    -0.6270    -2.6050 c          1 5O0       0.712600
@<TRIPOS>BOND
     1     1     2 ar  
     2     1     5 ar  
     3     1    28 1   
     4     2     3 ar  
     5     2    29 1   
     6     3    23 1   
     7     3    26 ar  
     8     4     5 ar  
     9     4    26 ar  
    10     4    30 1   
    11     5    25 1   
    12     6    18 ar  
    13     6    19 ar  
    14     6    31 1   
    15     7    46 1   
    16     8    45 2   
    17     9    45 2   
    18    10    17 ar  
    19    10    21 ar  
    20    10    32 1   
    21    11    12 ar  
    22    11    21 ar  
    23    11    33 1   
    24    12    16 ar  
    25    12    34 1   
    26    13    20 ar  
    27    13    22 ar  
    28    13    35 1   
    29    14    46 1   
    30    15    21 1   
    31    15    45 1   
    32    16    17 ar  
    33    16    46 1   
    34    17    36 1   
    35    18    22 ar  
    36    18    37 1   
    37    19    20 ar  
    38    19    38 1   
    39    20    45 1   
    40    22    27 1   
    41    23    39 1   
    42    23    44 1   
    43    24    44 2   
    44    26    43 1   
    45    27    42 1   
    46    27    44 1   
    47    40    43 1   
    48    41    43 1   
@<TRIPOS>SUBSTRUCTURE
     1 5O0         1 TEMP              0 ****  ****    0 ROOT
