@<TRIPOS>MOLECULE
5O1
   59    63     1     0     0
SMALL
bcc


@<TRIPOS>ATOM
      1 C1          -2.2280     2.7420     0.5300 ca         1 5O1      -0.260600
      2 N5          -4.9310     2.1500     0.2760 nb         1 5O1      -0.766000
      3 C6           3.9070     0.8570    -0.8100 ca         1 5O1      -0.148000
      4 C7           4.6070    -0.2340    -0.3030 ca         1 5O1       0.041000
      5 C8           3.8790    -1.3120     0.2080 ca         1 5O1      -0.195000
      6 C9           2.4920    -1.2960     0.2230 ca         1 5O1       0.110100
      7 C10          2.3590    -3.4550     1.2080 c3         1 5O1       0.128700
      8 C11          6.0670    -0.2710    -0.3090 cc         1 5O1      -0.222300
      9 C12          6.9200    -1.3770    -0.1200 cc         1 5O1       0.318200
     10 C13          6.9460     0.7780    -0.5110 cd         1 5O1      -0.121300
     11 C15         -3.2010     3.7340     0.7990 ca         1 5O1      -0.273300
     12 C18         -5.8170    -0.4430    -0.4500 c6         1 5O1       0.237500
     13 C19         -5.9630    -1.5710    -1.4680 c6         1 5O1      -0.090900
     14 C20         -7.4060    -2.0610    -1.5390 c6         1 5O1      -0.071400
     15 C21         -7.9220    -2.4890    -0.1690 c6         1 5O1      -0.077400
     16 C22         -7.7720    -1.3640     0.8490 c6         1 5O1      -0.071400
     17 C23         -6.3280    -0.8790     0.9250 c6         1 5O1      -0.090900
     18 N4           8.1870     0.2740    -0.4380 na         1 5O1       0.113400
     19 N3           8.1910    -1.0330    -0.2020 nd         1 5O1      -0.525800
     20 C5           2.5210     0.8730    -0.8080 ca         1 5O1      -0.096000
     21 O            1.7280    -2.2950     0.7020 os         1 5O1      -0.328900
     22 C4           1.7920    -0.1870    -0.2870 ca         1 5O1       0.133600
     23 C3          -0.4770     0.7700    -0.0190 ca         1 5O1       0.905900
     24 N            0.0240     1.9640     0.3660 nb         1 5O1      -0.729000
     25 C2          -0.8300     2.9130     0.6290 ca         1 5O1       0.484200
     26 N1          -1.7590     0.4850    -0.1430 nb         1 5O1      -0.780000
     27 C           -2.6280     1.4640     0.1300 ca         1 5O1       0.314300
     28 C17         -4.0490     1.2140     0.0100 ca         1 5O1       0.643900
     29 C16         -4.5080     3.3780     0.6550 ca         1 5O1       0.438200
     30 N6          -4.4390    -0.0030    -0.4060 nu         1 5O1      -0.861900
     31 H1           4.4370     1.6990    -1.2360 ha         1 5O1       0.130000
     32 H2           4.4110    -2.1580     0.6190 ha         1 5O1       0.136000
     33 H3           1.5630    -4.1250     1.5240 h1         1 5O1       0.041367
     34 H4           2.9630    -3.9560     0.4470 h1         1 5O1       0.041367
     35 H5           2.9920    -3.2300     2.0700 h1         1 5O1       0.041367
     36 H6           6.6500    -2.4080     0.0590 h4         1 5O1       0.036100
     37 H7           6.7740     1.8280    -0.6870 h4         1 5O1       0.173000
     38 H8          -2.9130     4.7290     1.1100 ha         1 5O1       0.142000
     39 H9          -6.4200     0.4060    -0.7860 h1         1 5O1       0.079700
     40 H10         -5.6300    -1.2260    -2.4500 hc         1 5O1       0.046200
     41 H11         -5.3080    -2.4030    -1.1830 hc         1 5O1       0.046200
     42 H12         -8.0390    -1.2580    -1.9310 hc         1 5O1       0.041700
     43 H13         -7.4790    -2.8880    -2.2490 hc         1 5O1       0.041700
     44 H14         -8.9660    -2.8020    -0.2400 hc         1 5O1       0.039200
     45 H15         -7.3570    -3.3630     0.1730 hc         1 5O1       0.039200
     46 H16         -8.4230    -0.5290     0.5680 hc         1 5O1       0.041700
     47 H17         -8.1060    -1.6950     1.8360 hc         1 5O1       0.041700
     48 H18         -5.6890    -1.6870     1.2990 hc         1 5O1       0.046200
     49 H19         -6.2380    -0.0480     1.6280 hc         1 5O1       0.046200
     50 H20         10.0310     0.8980     0.3180 h1         1 5O1       0.057033
     51 H21          9.9970     0.5930    -1.4290 h1         1 5O1       0.057033
     52 H22          9.2200     2.0370    -0.7650 h1         1 5O1       0.057033
     53 H23          2.0020     1.7220    -1.2280 ha         1 5O1       0.150000
     54 H24         -0.0350    -1.1330    -0.4430 hn         1 5O1       0.463800
     55 H25         -0.4240     3.8700     0.9440 h4         1 5O1       0.026100
     56 H26         -5.2960     4.0960     0.8510 h4         1 5O1       0.015100
     57 H27         -3.7140    -0.7010    -0.4800 hn         1 5O1       0.454800
     58 N2           0.3960    -0.2340    -0.2900 nu         1 5O1      -0.734300
     59 C14          9.4330     0.9870    -0.5860 c3         1 5O1       0.043600
@<TRIPOS>BOND
     1     1    11 ar  
     2     1    25 ar  
     3     1    27 ar  
     4     2    28 ar  
     5     2    29 ar  
     6     3     4 ar  
     7     3    20 ar  
     8     3    31 1   
     9     4     5 ar  
    10     4     8 1   
    11     5     6 ar  
    12     5    32 1   
    13     6    21 1   
    14     6    22 ar  
    15     7    21 1   
    16     7    33 1   
    17     7    34 1   
    18     7    35 1   
    19     8     9 1   
    20     8    10 2   
    21     9    19 2   
    22     9    36 1   
    23    10    18 1   
    24    10    37 1   
    25    11    29 ar  
    26    11    38 1   
    27    12    13 1   
    28    12    17 1   
    29    12    30 1   
    30    12    39 1   
    31    13    14 1   
    32    13    40 1   
    33    13    41 1   
    34    14    15 1   
    35    14    42 1   
    36    14    43 1   
    37    15    16 1   
    38    15    44 1   
    39    15    45 1   
    40    16    17 1   
    41    16    46 1   
    42    16    47 1   
    43    17    48 1   
    44    17    49 1   
    45    18    19 1   
    46    18    59 1   
    47    20    22 ar  
    48    20    53 1   
    49    22    58 1   
    50    23    24 ar  
    51    23    26 ar  
    52    23    58 1   
    53    24    25 ar  
    54    25    55 1   
    55    26    27 ar  
    56    27    28 ar  
    57    28    30 1   
    58    29    56 1   
    59    30    57 1   
    60    50    59 1   
    61    51    59 1   
    62    52    59 1   
    63    54    58 1   
@<TRIPOS>SUBSTRUCTURE
     1 5O1         1 TEMP              0 ****  ****    0 ROOT
