@<TRIPOS>MOLECULE
5O1
   59    63     1     0     0
SMALL
No Charge or Current Charge


@<TRIPOS>ATOM
      1 C1          -2.4260     2.9870     0.2590 ca         1 5O1      -0.130000
      2 N5          -5.1320     2.3210    -0.2220 nb         1 5O1      -0.766000
      3 C6           4.0580     1.0260    -0.3790 ca         1 5O1      -0.130000
      4 C7           4.6580    -0.2310    -0.1610 ca         1 5O1       0.041000
      5 C8           3.8270    -1.3570     0.0010 ca         1 5O1      -0.177000
      6 C9           2.4190    -1.2330    -0.0430 ca         1 5O1       0.110100
      7 C10          2.0900    -3.6670     0.3150 c3         1 5O1       0.151900
      8 C11          6.1180    -0.3900    -0.1100 cc         1 5O1      -0.157000
      9 C12          6.9000    -1.5420     0.0880 cc         1 5O1       0.252900
     10 C13          6.9940     0.6470    -0.2580 cd         1 5O1      -0.154000
     11 C15         -3.4480     3.9330     0.4410 ca         1 5O1      -0.190000
     12 C18         -5.8970    -0.4210    -0.5280 c6         1 5O1       0.237500
     13 C19         -6.1130    -1.6520    -1.4450 c6         1 5O1      -0.090900
     14 C20         -7.4590    -2.3550    -1.1350 c6         1 5O1      -0.071400
     15 C21         -7.5470    -2.7600     0.3580 c6         1 5O1      -0.077400
     16 C22         -7.3210    -1.5390     1.2840 c6         1 5O1      -0.071400
     17 C23         -5.9770    -0.8360     0.9670 c6         1 5O1      -0.090900
     18 N4           8.2580     0.0570    -0.1410 na         1 5O1       0.134800
     19 N3           8.1980    -1.3140     0.0760 nd         1 5O1      -0.525800
     20 C5           2.6590     1.1590    -0.4230 ca         1 5O1      -0.078000
     21 O            1.5850    -2.3360     0.1050 os         1 5O1      -0.352100
     22 C4           1.8230     0.0400    -0.2420 ca         1 5O1       0.272000
     23 C3          -0.5220     1.1410    -0.1140 ca         1 5O1       0.379900
     24 N           -0.1130     2.3530     0.3080 nb         1 5O1      -0.203000
     25 C2          -1.0700     3.2810     0.4900 ca         1 5O1       0.155900
     26 N1          -1.7920     0.7620    -0.3510 nb         1 5O1      -0.254000
     27 C           -2.7700     1.6870    -0.1710 ca         1 5O1      -0.014000
     28 C17         -4.1490     1.4180    -0.3920 ca         1 5O1       0.643900
     29 C16         -4.7790     3.5580     0.1900 ca         1 5O1       0.372900
     30 N6          -4.5810     0.1710    -0.8180 nu         1 5O1      -0.917100
     31 H1           4.6640     1.9150    -0.5230 ha         1 5O1       0.112000
     32 H2           4.2860    -2.3260     0.1600 ha         1 5O1       0.118000
     33 H3           1.2590    -4.3780     0.4050 h1         1 5O1       0.041367
     34 H4           2.7190    -3.9840    -0.5270 h1         1 5O1       0.041367
     35 H5           2.6820    -3.7190     1.2380 h1         1 5O1       0.041367
     36 H6           6.5560    -2.5550     0.2420 h4         1 5O1       0.036100
     37 H7           6.8530     1.7080    -0.4270 h4         1 5O1       0.155000
     38 H8          -3.2250     4.9440     0.7720 ha         1 5O1       0.124000
     39 H9          -6.7030     0.3000    -0.7410 h1         1 5O1       0.079700
     40 H10         -6.0960    -1.3410    -2.4980 hc         1 5O1       0.046200
     41 H11         -5.2900    -2.3690    -1.3160 hc         1 5O1       0.046200
     42 H12         -8.2930    -1.6860    -1.3870 hc         1 5O1       0.041700
     43 H13         -7.5700    -3.2450    -1.7690 hc         1 5O1       0.041700
     44 H14         -8.5280    -3.2090     0.5650 hc         1 5O1       0.039200
     45 H15         -6.7970    -3.5330     0.5760 hc         1 5O1       0.039200
     46 H16         -8.1480    -0.8260     1.1640 hc         1 5O1       0.041700
     47 H17         -7.3360    -1.8600     2.3340 hc         1 5O1       0.041700
     48 H18         -5.1440    -1.5090     1.2150 hc         1 5O1       0.046200
     49 H19         -5.8670     0.0480     1.6100 hc         1 5O1       0.046200
     50 H20         10.1010     0.6150     0.7150 h1         1 5O1       0.057033
     51 H21         10.1380     0.3280    -1.0520 h1         1 5O1       0.057033
     52 H22          9.3910     1.8180    -0.4030 h1         1 5O1       0.057033
     53 H23          2.2390     2.1380    -0.6190 ha         1 5O1       0.132000
     54 H24         -0.0200    -0.7890    -0.3580 hn         1 5O1       0.519000
     55 H25         -0.7460     4.2650     0.8270 h4         1 5O1       0.026100
     56 H26         -5.5900     4.2740     0.3230 h4         1 5O1       0.015100
     57 H27         -3.8030    -0.4670    -0.9670 hn         1 5O1       0.510000
     58 N2           0.4160     0.1320    -0.2890 nu         1 5O1      -0.927900
     59 C14          9.5530     0.7480    -0.2260 c3         1 5O1       0.072900
@<TRIPOS>BOND
     1     1    11 ar  
     2     1    25 ar  
     3     1    27 ar  
     4     2    28 ar  
     5     2    29 ar  
     6     3     4 ar  
     7     3    20 ar  
     8     3    31 1   
     9     4     5 ar  
    10     4     8 1   
    11     5     6 ar  
    12     5    32 1   
    13     6    21 1   
    14     6    22 ar  
    15     7    21 1   
    16     7    33 1   
    17     7    34 1   
    18     7    35 1   
    19     8     9 1   
    20     8    10 2   
    21     9    19 2   
    22     9    36 1   
    23    10    18 1   
    24    10    37 1   
    25    11    29 ar  
    26    11    38 1   
    27    12    13 1   
    28    12    17 1   
    29    12    30 1   
    30    12    39 1   
    31    13    14 1   
    32    13    40 1   
    33    13    41 1   
    34    14    15 1   
    35    14    42 1   
    36    14    43 1   
    37    15    16 1   
    38    15    44 1   
    39    15    45 1   
    40    16    17 1   
    41    16    46 1   
    42    16    47 1   
    43    17    48 1   
    44    17    49 1   
    45    18    19 1   
    46    18    59 1   
    47    20    22 ar  
    48    20    53 1   
    49    22    58 1   
    50    23    24 ar  
    51    23    26 ar  
    52    23    58 1   
    53    24    25 ar  
    54    25    55 1   
    55    26    27 ar  
    56    27    28 ar  
    57    28    30 1   
    58    29    56 1   
    59    30    57 1   
    60    50    59 1   
    61    51    59 1   
    62    52    59 1   
    63    54    58 1   
@<TRIPOS>SUBSTRUCTURE
     1 5O1         1 TEMP              0 ****  ****    0 ROOT
