@<TRIPOS>MOLECULE
5O2
   92    99     1     0     0
SMALL
abcg2


@<TRIPOS>ATOM
      1 N2          35.8630    23.9040     7.7530 na         1 5O2       0.039300
      2 C8          36.2360    24.5400    10.0730 cp         1 5O2      -0.135000
      3 C7          36.5680    24.6300     8.6260 cp         1 5O2       0.121000
      4 C6          36.1260    23.9240     6.3770 ca         1 5O2       0.042700
      5 C5          35.3940    23.1130     5.5020 ca         1 5O2      -0.232000
      6 C19         39.3620    27.0890     8.7240 ca         1 5O2       0.311000
      7 C18         39.6340    27.1820     7.3330 ca         1 5O2      -0.087000
      8 N3          40.0630    27.8770     9.6100 nv         1 5O2      -1.071000
      9 C11         35.6200    24.4020    12.7840 ca         1 5O2      -0.066000
     10 C12         35.1080    25.4340    12.0050 ca         1 5O2      -0.103500
     11 C13         35.4150    25.5080    10.6530 ca         1 5O2      -0.078000
     12 C14         37.6130    25.4860     8.1960 ca         1 5O2      -0.075000
     13 C15         38.3560    26.2350     9.1360 ca         1 5O2      -0.154000
     14 C16         37.8980    25.5770     6.8080 ca         1 5O2       0.023000
     15 C17         38.9320    26.4530     6.4130 ca         1 5O2      -0.087000
     16 C10         36.4500    23.4460    12.2100 ca         1 5O2      -0.103500
     17 C9          36.7620    23.5140    10.8570 ca         1 5O2      -0.078000
     18 C4          37.1420    24.7830     5.8930 ca         1 5O2      -0.080000
     19 C3          37.3620    24.7990     4.4960 ca         1 5O2      -0.032000
     20 C2          36.6430    24.0130     3.6410 ca         1 5O2      -0.148000
     21 C1          35.6430    23.1400     4.1340 ca         1 5O2       0.368000
     22 N1          34.9760    22.3080     3.2730 nv         1 5O2      -1.075000
     23 C20         34.7780    23.0280     8.2580 c3         1 5O2       0.030600
     24 C21         35.2410    21.5820     8.4730 c3         1 5O2      -0.088400
     25 C22         34.4700    20.9220     9.6160 c3         1 5O2      -0.082400
     26 C24         32.9700    20.7850     9.3650 c3         1 5O2      -0.074400
     27 C25         32.1970    20.3980    10.6280 c3         1 5O2      -0.097700
     28 C26         32.1990    21.4690    11.6690 cc         1 5O2       0.208300
     29 N4          32.2150    21.2050    13.0050 nc         1 5O2      -0.351000
     30 N5          32.1350    22.3290    13.6740 nd         1 5O2      -0.203800
     31 N6          32.0730    23.3220    12.7800 na         1 5O2       0.112800
     32 C27         32.1270    22.8360    11.5220 cd         1 5O2      -0.215000
     33 C28         31.8840    24.7060    13.2150 c3         1 5O2       0.086600
     34 C29         30.5290    24.9540    13.8660 c3         1 5O2       0.156800
     35 N7          29.3930    25.0450    12.9310 nu         1 5O2      -0.920200
     36 C30         29.1530    23.9120    12.0860 ca         1 5O2       0.254000
     37 C31         28.7580    22.6520    12.6210 ca         1 5O2      -0.098000
     38 C32         28.4570    22.4370    13.9870 ca         1 5O2      -0.102000
     39 C33         28.6770    21.5520    11.7230 ca         1 5O2       0.277000
     40 C34         28.3470    20.2700    12.2230 ca         1 5O2      -0.079000
     41 C35         28.0810    20.0890    13.5570 ca         1 5O2      -0.089000
     42 C36         28.1250    21.1860    14.4440 ca         1 5O2      -0.087000
     43 N8          28.9040    21.6900    10.3920 nb         1 5O2      -0.671000
     44 C37         29.1820    22.8810     9.9070 ca         1 5O2       0.363300
     45 C38         29.3460    22.9610     8.4080 c6         1 5O2      -0.133700
     46 C39         29.3270    24.0440    10.7230 ca         1 5O2      -0.109300
     47 C40         29.7030    25.3770    10.1110 c6         1 5O2      -0.014100
     48 C41         29.5210    25.4340     8.5950 c6         1 5O2      -0.080400
     49 C42         30.1130    24.1920     7.9390 c6         1 5O2      -0.070400
     50 H1          34.6300    22.4420     5.8610 ha         1 5O2       0.134000
     51 H2          40.4230    27.8470     7.0020 ha         1 5O2       0.138000
     52 H3          40.0400    27.5970    10.5790 hn         1 5O2       0.475000
     53 H4          40.9690    28.2010     9.3080 hn         1 5O2       0.475000
     54 H5          35.3770    24.3480    13.8370 ha         1 5O2       0.139000
     55 H6          34.4660    26.1840    12.4480 ha         1 5O2       0.136000
     56 H7          35.0140    26.3080    10.0440 ha         1 5O2       0.127500
     57 H8          38.1350    26.1400    10.1900 ha         1 5O2       0.139000
     58 H9          39.1880    26.5530     5.3690 ha         1 5O2       0.135000
     59 H10         36.8590    22.6450    12.8130 ha         1 5O2       0.136000
     60 H11         37.4120    22.7740    10.4110 ha         1 5O2       0.127500
     61 H12         38.1200    25.4520     4.0870 ha         1 5O2       0.136000
     62 H13         36.8350    24.0470     2.5760 ha         1 5O2       0.141000
     63 H14         34.1140    21.8930     3.5900 hn         1 5O2       0.485000
     64 H15         34.9920    22.5450     2.2930 hn         1 5O2       0.485000
     65 H16         34.4420    23.4550     9.1950 h1         1 5O2       0.087200
     66 H17         33.9470    23.1030     7.5660 h1         1 5O2       0.087200
     67 H18         35.1360    21.0060     7.5520 hc         1 5O2       0.058200
     68 H19         36.3030    21.5900     8.7190 hc         1 5O2       0.058200
     69 H20         34.8930    19.9320     9.8070 hc         1 5O2       0.059200
     70 H21         34.6350    21.5110    10.5220 hc         1 5O2       0.059200
     71 H22         32.5600    21.7240     8.9800 hc         1 5O2       0.038200
     72 H23         32.7920    20.0350     8.5890 hc         1 5O2       0.038200
     73 H24         31.1620    20.1750    10.3560 hc         1 5O2       0.075700
     74 H25         32.6130    19.4880    11.0690 hc         1 5O2       0.075700
     75 H26         32.1050    23.4750    10.6580 h4         1 5O2       0.158000
     76 H27         32.6590    24.9300    13.9470 h1         1 5O2       0.065700
     77 H28         32.0380    25.3420    12.3470 h1         1 5O2       0.065700
     78 H29         30.3880    24.1870    14.6340 h1         1 5O2       0.060700
     79 H30         30.5920    25.9150    14.3770 h1         1 5O2       0.060700
     80 H31         28.5620    25.2650    13.4680 hn         1 5O2       0.443000
     81 H32         28.4790    23.2670    14.6790 ha         1 5O2       0.108000
     82 H33         28.3010    19.4470    11.5210 ha         1 5O2       0.132000
     83 H34         27.8270    19.1060    13.9320 ha         1 5O2       0.125000
     84 H35         27.8980    21.0370    15.4920 ha         1 5O2       0.122000
     85 H36         28.3400    22.9830     7.9710 hc         1 5O2       0.065200
     86 H37         29.8110    22.0360     8.0640 hc         1 5O2       0.065200
     87 H38         30.7530    25.5850    10.3410 hc         1 5O2       0.050200
     88 H39         29.1370    26.1660    10.6030 hc         1 5O2       0.050200
     89 H40         29.9910    26.3420     8.2120 hc         1 5O2       0.049700
     90 H41         28.4550    25.4970     8.3490 hc         1 5O2       0.049700
     91 H42         31.1680    24.1020     8.2170 hc         1 5O2       0.031200
     92 H43         30.0710    24.2620     6.8510 hc         1 5O2       0.031200
@<TRIPOS>BOND
     1     1     3 1   
     2     1     4 2   
     3     1    23 1   
     4     2     3 1   
     5     2    11 ar  
     6     2    17 ar  
     7     3    12 ar  
     8     4     5 ar  
     9     4    18 ar  
    10     5    21 ar  
    11     5    50 1   
    12     6     7 ar  
    13     6     8 1   
    14     6    13 ar  
    15     7    15 ar  
    16     7    51 1   
    17     8    52 1   
    18     8    53 1   
    19     9    10 ar  
    20     9    16 ar  
    21     9    54 1   
    22    10    11 ar  
    23    10    55 1   
    24    11    56 1   
    25    12    13 ar  
    26    12    14 ar  
    27    13    57 1   
    28    14    15 ar  
    29    14    18 ar  
    30    15    58 1   
    31    16    17 ar  
    32    16    59 1   
    33    17    60 1   
    34    18    19 ar  
    35    19    20 ar  
    36    19    61 1   
    37    20    21 ar  
    38    20    62 1   
    39    21    22 1   
    40    22    63 1   
    41    22    64 1   
    42    23    24 1   
    43    23    65 1   
    44    23    66 1   
    45    24    25 1   
    46    24    67 1   
    47    24    68 1   
    48    25    26 1   
    49    25    69 1   
    50    25    70 1   
    51    26    27 1   
    52    26    71 1   
    53    26    72 1   
    54    27    28 1   
    55    27    73 1   
    56    27    74 1   
    57    28    29 1   
    58    28    32 2   
    59    29    30 2   
    60    30    31 1   
    61    31    32 1   
    62    31    33 1   
    63    32    75 1   
    64    33    34 1   
    65    33    76 1   
    66    33    77 1   
    67    34    35 1   
    68    34    78 1   
    69    34    79 1   
    70    35    36 1   
    71    35    80 1   
    72    36    37 ar  
    73    36    46 ar  
    74    37    38 ar  
    75    37    39 ar  
    76    38    42 ar  
    77    38    81 1   
    78    39    40 ar  
    79    39    43 ar  
    80    40    41 ar  
    81    40    82 1   
    82    41    42 ar  
    83    41    83 1   
    84    42    84 1   
    85    43    44 ar  
    86    44    45 1   
    87    44    46 ar  
    88    45    49 1   
    89    45    85 1   
    90    45    86 1   
    91    46    47 1   
    92    47    48 1   
    93    47    87 1   
    94    47    88 1   
    95    48    49 1   
    96    48    89 1   
    97    48    90 1   
    98    49    91 1   
    99    49    92 1   
@<TRIPOS>SUBSTRUCTURE
     1 5O2         1 TEMP              0 ****  ****    0 ROOT
