@<TRIPOS>MOLECULE
5O2
   92    99     1     0     0
SMALL
No Charge or Current Charge


@<TRIPOS>ATOM
      1 N2          35.2220    23.1500     8.1290 na         1 5O2       0.039300
      2 C8          36.1280    23.9620    10.3500 cp         1 5O2      -0.135000
      3 C7          35.9020    24.1590     8.8830 cp         1 5O2       0.121000
      4 C6          35.1620    23.2460     6.7310 ca         1 5O2       0.042700
      5 C5          34.7280    22.1400     5.9590 ca         1 5O2      -0.232000
      6 C19         37.1830    27.6430     8.4010 ca         1 5O2       0.311000
      7 C18         36.9420    27.8280     7.0380 ca         1 5O2      -0.087000
      8 N3          37.7380    28.6460     9.1550 nv         1 5O2      -1.071000
      9 C11         36.5340    23.5420    13.1220 ca         1 5O2      -0.066000
     10 C12         35.4680    24.3430    12.6820 ca         1 5O2      -0.103500
     11 C13         35.2650    24.5510    11.3060 ca         1 5O2      -0.078000
     12 C14         36.2660    25.3740     8.2430 ca         1 5O2      -0.075000
     13 C15         36.8470    26.4240     8.9970 ca         1 5O2      -0.154000
     14 C16         36.0430    25.5460     6.8500 ca         1 5O2       0.023000
     15 C17         36.3850    26.7950     6.2680 ca         1 5O2      -0.087000
     16 C10         37.4030    22.9560    12.1870 ca         1 5O2      -0.103500
     17 C9          37.2040    23.1680    10.8130 ca         1 5O2      -0.078000
     18 C4          35.5210    24.4590     6.0820 ca         1 5O2      -0.080000
     19 C3          35.3780    24.5310     4.6700 ca         1 5O2      -0.032000
     20 C2          34.9200    23.4300     3.9320 ca         1 5O2      -0.148000
     21 C1          34.6060    22.2340     4.5740 ca         1 5O2       0.368000
     22 N1          34.1780    21.1540     3.8550 nv         1 5O2      -1.075000
     23 C20         34.3320    22.2180     8.8660 c3         1 5O2       0.030600
     24 C21         35.0150    20.9030     9.3210 c3         1 5O2      -0.088400
     25 C22         34.4480    20.3640    10.6530 c3         1 5O2      -0.082400
     26 C24         32.9550    19.9570    10.5830 c3         1 5O2      -0.074400
     27 C25         32.3190    19.7000    11.9680 c3         1 5O2      -0.097700
     28 C26         32.1070    20.9370    12.8080 cc         1 5O2       0.208300
     29 N4          31.6880    20.8350    14.1020 nc         1 5O2      -0.351000
     30 N5          31.5430    22.0420    14.5890 nd         1 5O2      -0.203800
     31 N6          31.8690    22.9250    13.5910 na         1 5O2       0.112800
     32 C27         32.2530    22.2460    12.4610 cd         1 5O2      -0.215000
     33 C28         31.7770    24.3820    13.7860 c3         1 5O2       0.086600
     34 C29         30.3260    24.9250    13.7460 c3         1 5O2       0.156800
     35 N7          29.8270    25.2210    12.3770 nu         1 5O2      -0.920200
     36 C30         30.0510    24.4520    11.2160 ca         1 5O2       0.254000
     37 C31         29.5720    23.1250    11.0720 ca         1 5O2      -0.098000
     38 C32         28.7740    22.4980    12.0600 ca         1 5O2      -0.102000
     39 C33         29.9060    22.4060     9.8950 ca         1 5O2       0.277000
     40 C34         29.4700    21.0750     9.7550 ca         1 5O2      -0.079000
     41 C35         28.7050    20.4530    10.7530 ca         1 5O2      -0.089000
     42 C36         28.3510    21.1690    11.9040 ca         1 5O2      -0.087000
     43 N8          30.6260    22.9580     8.8970 nb         1 5O2      -0.671000
     44 C37         31.0410    24.2320     9.0180 ca         1 5O2       0.363300
     45 C38         31.8060    24.7660     7.8040 c6         1 5O2      -0.133700
     46 C39         30.7840    25.0270    10.1540 ca         1 5O2      -0.109300
     47 C40         31.3350    26.4680    10.2440 c6         1 5O2      -0.014100
     48 C41         31.8360    27.0400     8.8970 c6         1 5O2      -0.080400
     49 C42         32.6720    25.9980     8.1330 c6         1 5O2      -0.070400
     50 H1          34.4830    21.1940     6.4290 ha         1 5O2       0.134000
     51 H2          37.1930    28.7740     6.5670 ha         1 5O2       0.138000
     52 H3          38.0430    28.4560    10.1080 hn         1 5O2       0.475000
     53 H4          38.1170    29.4760     8.7030 hn         1 5O2       0.475000
     54 H5          36.6890    23.3800    14.1870 ha         1 5O2       0.139000
     55 H6          34.8030    24.8050    13.4070 ha         1 5O2       0.136000
     56 H7          34.4350    25.1710    10.9760 ha         1 5O2       0.127500
     57 H8          37.0380    26.3050    10.0590 ha         1 5O2       0.139000
     58 H9          36.2290    27.0090     5.2180 ha         1 5O2       0.135000
     59 H10         38.2320    22.3380    12.5280 ha         1 5O2       0.136000
     60 H11         37.8840    22.7110    10.0970 ha         1 5O2       0.127500
     61 H12         35.6300    25.4190     4.1030 ha         1 5O2       0.136000
     62 H13         34.8270    23.5070     2.8520 ha         1 5O2       0.141000
     63 H14         33.7860    20.3510     4.3440 hn         1 5O2       0.485000
     64 H15         33.9200    21.2680     2.8770 hn         1 5O2       0.485000
     65 H16         33.9480    22.7480     9.7440 h1         1 5O2       0.087200
     66 H17         33.4490    21.9840     8.2590 h1         1 5O2       0.087200
     67 H18         34.9190    20.1430     8.5380 hc         1 5O2       0.058200
     68 H19         36.0890    21.0720     9.4540 hc         1 5O2       0.058200
     69 H20         35.0380    19.4930    10.9660 hc         1 5O2       0.059200
     70 H21         34.5950    21.1260    11.4280 hc         1 5O2       0.059200
     71 H22         32.3710    20.7260    10.0650 hc         1 5O2       0.038200
     72 H23         32.8700    19.0470     9.9770 hc         1 5O2       0.038200
     73 H24         31.3470    19.2160    11.8160 hc         1 5O2       0.075700
     74 H25         32.9360    18.9810    12.5200 hc         1 5O2       0.075700
     75 H26         32.5490    22.7240    11.5390 h4         1 5O2       0.158000
     76 H27         32.2080    24.6110    14.7680 h1         1 5O2       0.065700
     77 H28         32.3850    24.8900    13.0290 h1         1 5O2       0.065700
     78 H29         29.6700    24.2130    14.2630 h1         1 5O2       0.060700
     79 H30         30.2950    25.8520    14.3360 h1         1 5O2       0.060700
     80 H31         29.7370    26.2190    12.1800 hn         1 5O2       0.443000
     81 H32         28.4640    23.0320    12.9510 ha         1 5O2       0.108000
     82 H33         29.7320    20.5200     8.8580 ha         1 5O2       0.132000
     83 H34         28.3780    19.4230    10.6290 ha         1 5O2       0.125000
     84 H35         27.7450    20.6970    12.6740 ha         1 5O2       0.122000
     85 H36         31.0780    25.0340     7.0270 hc         1 5O2       0.065200
     86 H37         32.4340    23.9800     7.3690 hc         1 5O2       0.065200
     87 H38         32.1620    26.4820    10.9670 hc         1 5O2       0.050200
     88 H39         30.5690    27.1480    10.6410 hc         1 5O2       0.050200
     89 H40         32.4320    27.9460     9.0750 hc         1 5O2       0.049700
     90 H41         30.9790    27.3460     8.2820 hc         1 5O2       0.049700
     91 H42         33.5310    25.6990     8.7460 hc         1 5O2       0.031200
     92 H43         33.0760    26.4340     7.2080 hc         1 5O2       0.031200
@<TRIPOS>BOND
     1     1     3 1   
     2     1     4 2   
     3     1    23 1   
     4     2     3 1   
     5     2    11 ar  
     6     2    17 ar  
     7     3    12 ar  
     8     4     5 ar  
     9     4    18 ar  
    10     5    21 ar  
    11     5    50 1   
    12     6     7 ar  
    13     6     8 1   
    14     6    13 ar  
    15     7    15 ar  
    16     7    51 1   
    17     8    52 1   
    18     8    53 1   
    19     9    10 ar  
    20     9    16 ar  
    21     9    54 1   
    22    10    11 ar  
    23    10    55 1   
    24    11    56 1   
    25    12    13 ar  
    26    12    14 ar  
    27    13    57 1   
    28    14    15 ar  
    29    14    18 ar  
    30    15    58 1   
    31    16    17 ar  
    32    16    59 1   
    33    17    60 1   
    34    18    19 ar  
    35    19    20 ar  
    36    19    61 1   
    37    20    21 ar  
    38    20    62 1   
    39    21    22 1   
    40    22    63 1   
    41    22    64 1   
    42    23    24 1   
    43    23    65 1   
    44    23    66 1   
    45    24    25 1   
    46    24    67 1   
    47    24    68 1   
    48    25    26 1   
    49    25    69 1   
    50    25    70 1   
    51    26    27 1   
    52    26    71 1   
    53    26    72 1   
    54    27    28 1   
    55    27    73 1   
    56    27    74 1   
    57    28    29 1   
    58    28    32 2   
    59    29    30 2   
    60    30    31 1   
    61    31    32 1   
    62    31    33 1   
    63    32    75 1   
    64    33    34 1   
    65    33    76 1   
    66    33    77 1   
    67    34    35 1   
    68    34    78 1   
    69    34    79 1   
    70    35    36 1   
    71    35    80 1   
    72    36    37 ar  
    73    36    46 ar  
    74    37    38 ar  
    75    37    39 ar  
    76    38    42 ar  
    77    38    81 1   
    78    39    40 ar  
    79    39    43 ar  
    80    40    41 ar  
    81    40    82 1   
    82    41    42 ar  
    83    41    83 1   
    84    42    84 1   
    85    43    44 ar  
    86    44    45 1   
    87    44    46 ar  
    88    45    49 1   
    89    45    85 1   
    90    45    86 1   
    91    46    47 1   
    92    47    48 1   
    93    47    87 1   
    94    47    88 1   
    95    48    49 1   
    96    48    89 1   
    97    48    90 1   
    98    49    91 1   
    99    49    92 1   
@<TRIPOS>SUBSTRUCTURE
     1 5O2         1 TEMP              0 ****  ****    0 ROOT
