@<TRIPOS>MOLECULE
5O3
   47    49     1     0     0
SMALL
No Charge or Current Charge


@<TRIPOS>ATOM
      1 C1          -6.7340    -1.3330    -1.6160 ca         1 5O3      -0.180000
      2 C2          -7.4930    -1.3350    -0.4390 ca         1 5O3       0.163000
      3 C3          -6.9280    -0.8870     0.7620 ca         1 5O3      -0.145000
      4 C4          -5.5990    -0.4340     0.7900 ca         1 5O3      -0.049000
      5 C5          -4.8190    -0.4340    -0.3900 ca         1 5O3      -0.100000
      6 C6          -2.5470     0.2080     0.6270 c          1 5O3       0.658100
      7 C7          -0.1630     1.1570     0.8220 ca         1 5O3      -0.045000
      8 C8           0.0770     0.9460     2.1990 ca         1 5O3      -0.074000
      9 C9           1.3040     1.3230     2.7710 ca         1 5O3      -0.104000
     10 C10          2.3050     1.9140     1.9830 ca         1 5O3      -0.011000
     11 C11          2.0780     2.1300     0.6090 ca         1 5O3      -0.275500
     12 C12          4.3890     0.3560    -1.0810 ca         1 5O3       0.173000
     13 C13          4.8170     0.0070     0.2140 ca         1 5O3      -0.132500
     14 C14          5.2670    -1.2960     0.4910 ca         1 5O3      -0.083500
     15 C15          5.3030    -2.2810    -0.5220 ca         1 5O3      -0.120600
     16 C16          5.7900    -3.6910    -0.2240 c          1 5O3       0.711600
     17 C17          4.8760    -1.9200    -1.8210 ca         1 5O3      -0.083500
     18 C18          4.4270    -0.6160    -2.0930 ca         1 5O3      -0.132500
     19 C19          0.8450     1.7510     0.0380 ca         1 5O3      -0.083000
     20 Cl          -9.1580    -1.8970    -0.4700 cl         1 5O3      -0.214000
     21 C           -5.4050    -0.8870    -1.5980 ca         1 5O3       0.306000
     22 N3           3.9310     1.6350    -1.4020 nu         1 5O3      -0.842100
     23 N           -4.6920    -0.9170    -2.7720 nv         1 5O3      -1.079000
     24 O           -2.7390    -0.1500     1.7840 o          1 5O3      -0.605100
     25 N1          -3.4750     0.0520    -0.3940 ns         1 5O3      -0.194000
     26 S            3.3590     2.8770    -0.4170 sy         1 5O3       1.130600
     27 O1           2.7400     3.7790    -1.3920 o          1 5O3      -0.547500
     28 O2           4.5120     3.2790     0.3950 o          1 5O3      -0.547500
     29 N2          -1.3780     0.8020     0.1700 ns         1 5O3      -0.165000
     30 O4           6.1530    -3.9570     0.9130 o          1 5O3      -0.713500
     31 O3           5.8020    -4.5110    -1.1320 o          1 5O3      -0.713500
     32 H1          -7.1820    -1.6810    -2.5410 ha         1 5O3       0.127000
     33 H2          -7.5240    -0.8830     1.6720 ha         1 5O3       0.133000
     34 H3          -5.1980    -0.0680     1.7310 ha         1 5O3       0.129000
     35 H4          -0.6690     0.4930     2.8430 ha         1 5O3       0.139000
     36 H5           1.4810     1.1570     3.8310 ha         1 5O3       0.126000
     37 H6           3.2490     2.2000     2.4440 ha         1 5O3       0.153000
     38 H7           4.8130     0.7380     1.0160 ha         1 5O3       0.103000
     39 H8           5.5910    -1.5360     1.5020 ha         1 5O3       0.134500
     40 H9           4.8920    -2.6510    -2.6270 ha         1 5O3       0.134500
     41 H10          4.1050    -0.3640    -3.1000 ha         1 5O3       0.103000
     42 H11          0.6710     1.9160    -1.0250 ha         1 5O3       0.124000
     43 H12          3.5280     1.7800    -2.3160 hn         1 5O3       0.471000
     44 H13         -3.6770    -0.8920    -2.7370 hn         1 5O3       0.460500
     45 H14         -5.1000    -1.3760    -3.5850 hn         1 5O3       0.460500
     46 H15         -3.1560     0.3720    -1.2990 hn         1 5O3       0.155000
     47 H16         -1.3900     1.0300    -0.8150 hn         1 5O3       0.144000
@<TRIPOS>BOND
     1     1     2 ar  
     2     1    21 ar  
     3     1    32 1   
     4     2     3 ar  
     5     2    20 1   
     6     3     4 ar  
     7     3    33 1   
     8     4     5 ar  
     9     4    34 1   
    10     5    21 ar  
    11     5    25 1   
    12     6    24 2   
    13     6    25 1   
    14     6    29 1   
    15     7     8 ar  
    16     7    19 ar  
    17     7    29 1   
    18     8     9 ar  
    19     8    35 1   
    20     9    10 ar  
    21     9    36 1   
    22    10    11 ar  
    23    10    37 1   
    24    11    19 ar  
    25    11    26 1   
    26    12    13 ar  
    27    12    18 ar  
    28    12    22 1   
    29    13    14 ar  
    30    13    38 1   
    31    14    15 ar  
    32    14    39 1   
    33    15    16 1   
    34    15    17 ar  
    35    16    30 1   
    36    16    31 1   
    37    17    18 ar  
    38    17    40 1   
    39    18    41 1   
    40    19    42 1   
    41    21    23 1   
    42    22    26 1   
    43    22    43 1   
    44    23    44 1   
    45    23    45 1   
    46    25    46 1   
    47    26    27 2   
    48    26    28 2   
    49    29    47 1   
@<TRIPOS>SUBSTRUCTURE
     1 5O3         1 TEMP              0 ****  ****    0 ROOT
