@<TRIPOS>MOLECULE
5O3
   47    49     1     0     0
SMALL
abcg2


@<TRIPOS>ATOM
      1 C1          -7.1610    -1.1900    -1.0770 ca         1 5O3      -0.180000
      2 C2          -7.7890    -0.5050    -0.0550 ca         1 5O3       0.163000
      3 C3          -7.1390     0.4630     0.6960 ca         1 5O3      -0.145000
      4 C4          -5.8160     0.7380     0.3860 ca         1 5O3      -0.049000
      5 C5          -5.1530     0.0640    -0.6270 ca         1 5O3      -0.100000
      6 C6          -2.7900     0.0990    -0.0630 c          1 5O3       0.658100
      7 C7          -0.3590     0.4470     0.1640 ca         1 5O3      -0.045000
      8 C8          -0.0560    -0.5590     1.0860 ca         1 5O3      -0.074000
      9 C9           1.1740    -0.5690     1.7250 ca         1 5O3      -0.104000
     10 C10          2.1330     0.3970     1.4640 ca         1 5O3      -0.011000
     11 C11          1.8270     1.3760     0.5290 ca         1 5O3      -0.275500
     12 C12          4.7050     0.6890    -0.7510 ca         1 5O3       0.173000
     13 C13          5.8630     0.7530     0.0160 ca         1 5O3      -0.132500
     14 C14          6.5460    -0.4120     0.3240 ca         1 5O3      -0.083500
     15 C15          6.1070    -1.6510    -0.1360 ca         1 5O3      -0.120600
     16 C16          6.8720    -2.9250     0.2030 c          1 5O3       0.711600
     17 C17          4.9550    -1.6960    -0.9170 ca         1 5O3      -0.083500
     18 C18          4.2510    -0.5410    -1.2150 ca         1 5O3      -0.132500
     19 C19          0.6030     1.4160    -0.1180 ca         1 5O3      -0.083000
     20 CL          -9.4480    -0.8730     0.2970 cl         1 5O3      -0.214000
     21 C           -5.8200    -0.9210    -1.3770 ca         1 5O3       0.306000
     22 N3           4.0000     1.8820    -1.0660 nu         1 5O3      -0.842100
     23 N           -5.1900    -1.5630    -2.4100 nv         1 5O3      -1.079000
     24 O           -2.9560    -0.4530     1.0090 o          1 5O3      -0.605100
     25 N1          -3.8070     0.3580    -0.9330 ns         1 5O3      -0.194000
     26 S            3.0540     2.5820     0.1110 sy         1 5O3       1.130600
     27 O1           2.4070     3.7110    -0.5340 o          1 5O3      -0.547500
     28 O2           3.8940     2.7860     1.2750 o          1 5O3      -0.547500
     29 N2          -1.5660     0.5180    -0.5260 ns         1 5O3      -0.165000
     30 O4           7.8910    -2.7910     0.9070 o          1 5O3      -0.713500
     31 O3           6.4110    -3.9890    -0.2520 o          1 5O3      -0.713500
     32 H1          -7.6960    -1.9440    -1.6400 ha         1 5O3       0.127000
     33 H2          -7.6450     0.9910     1.4900 ha         1 5O3       0.133000
     34 H3          -5.2870     1.5010     0.9420 ha         1 5O3       0.129000
     35 H4          -0.7680    -1.3390     1.3020 ha         1 5O3       0.139000
     36 H5           1.3890    -1.3540     2.4370 ha         1 5O3       0.126000
     37 H6           3.0860     0.3770     1.9730 ha         1 5O3       0.153000
     38 H7           6.2340     1.7100     0.3560 ha         1 5O3       0.103000
     39 H8           7.4450    -0.3580     0.9220 ha         1 5O3       0.134500
     40 H9           4.5980    -2.6470    -1.2860 ha         1 5O3       0.134500
     41 H10          3.3460    -0.5930    -1.8100 ha         1 5O3       0.103000
     42 H11          0.3810     2.2000    -0.8310 ha         1 5O3       0.124000
     43 H12          3.5080     1.8530    -1.9540 hn         1 5O3       0.471000
     44 H13         -4.1840    -1.6090    -2.3620 hn         1 5O3       0.460500
     45 H14         -5.6030    -2.4300    -2.7130 hn         1 5O3       0.460500
     46 H15         -3.6070     0.7940    -1.8210 hn         1 5O3       0.155000
     47 H16         -1.5610     1.1130    -1.3410 hn         1 5O3       0.144000
@<TRIPOS>BOND
     1     1     2 ar  
     2     1    21 ar  
     3     1    32 1   
     4     2     3 ar  
     5     2    20 1   
     6     3     4 ar  
     7     3    33 1   
     8     4     5 ar  
     9     4    34 1   
    10     5    21 ar  
    11     5    25 1   
    12     6    24 2   
    13     6    25 1   
    14     6    29 1   
    15     7     8 ar  
    16     7    19 ar  
    17     7    29 1   
    18     8     9 ar  
    19     8    35 1   
    20     9    10 ar  
    21     9    36 1   
    22    10    11 ar  
    23    10    37 1   
    24    11    19 ar  
    25    11    26 1   
    26    12    13 ar  
    27    12    18 ar  
    28    12    22 1   
    29    13    14 ar  
    30    13    38 1   
    31    14    15 ar  
    32    14    39 1   
    33    15    16 1   
    34    15    17 ar  
    35    16    30 1   
    36    16    31 1   
    37    17    18 ar  
    38    17    40 1   
    39    18    41 1   
    40    19    42 1   
    41    21    23 1   
    42    22    26 1   
    43    22    43 1   
    44    23    44 1   
    45    23    45 1   
    46    25    46 1   
    47    26    27 2   
    48    26    28 2   
    49    29    47 1   
@<TRIPOS>SUBSTRUCTURE
     1 5O3         1 TEMP              0 ****  ****    0 ROOT
