@<TRIPOS>MOLECULE
5O4
   31    34     1     0     0
SMALL
No Charge or Current Charge


@<TRIPOS>ATOM
      1 C1          -3.7850     0.1480     0.1610 ca         1 5O4      -0.135000
      2 C2          -2.6420     0.9330    -0.0210 ca         1 5O4      -0.050000
      3 C3          -1.4130     0.3160    -0.0130 ca         1 5O4      -0.188000
      4 C4          -1.2920    -1.0890     0.1200 ca         1 5O4       0.513500
      5 C5          -0.0460    -1.8250    -0.0870 cc         1 5O4      -0.236500
      6 C6           0.3830    -3.0700     0.4190 cc         1 5O4      -0.143000
      7 C7           1.5530    -3.3650    -0.2230 cd         1 5O4       0.099900
      8 C8           0.8540    -1.4770    -1.0590 cd         1 5O4       0.152900
      9 N1          -1.2190     2.5500    -0.3290 na         1 5O4       0.022500
     10 N2          -2.5950     2.3140    -0.2230 nc         1 5O4      -0.279400
     11 N           -2.4000    -1.8530     0.2950 nb         1 5O4      -0.691000
     12 C           -3.6120    -1.2390     0.3310 ca         1 5O4       0.336900
     13 O            1.8820    -2.3910    -1.1400 os         1 5O4      -0.233000
     14 C15          1.8200     2.1590    -0.7450 ca         1 5O4      -0.088500
     15 C14          3.2070     2.1690    -0.5150 ca         1 5O4      -0.110500
     16 C13          3.7520     1.4170     0.5390 ca         1 5O4      -0.094000
     17 C12          2.9080     0.6600     1.3670 ca         1 5O4      -0.110500
     18 C11          1.5210     0.6500     1.1380 ca         1 5O4      -0.088500
     19 C10          0.9670     1.3890     0.0720 ca         1 5O4      -0.060800
     20 C9          -0.4760     1.3880    -0.1660 cc         1 5O4      -0.012300
     21 H1          -4.7780     0.5870     0.1720 ha         1 5O4       0.135000
     22 H2          -0.1300    -3.6730     1.1620 ha         1 5O4       0.154000
     23 H3           2.2130    -4.2190    -0.1380 h4         1 5O4       0.052100
     24 H4           0.8670    -0.6490    -1.7550 h4         1 5O4       0.058100
     25 H5          -0.8550     3.4900    -0.4410 hn         1 5O4       0.374000
     26 H6          -4.4750    -1.8870     0.4770 h4         1 5O4       0.017100
     27 H8           3.8590     2.7590    -1.1560 ha         1 5O4       0.120000
     28 H9           4.8250     1.4250     0.7160 ha         1 5O4       0.118000
     29 H10          3.3260     0.0830     2.1890 ha         1 5O4       0.120000
     30 H11          0.8760     0.0710     1.7950 ha         1 5O4       0.123000
     31 H7           1.4110     2.7390    -1.5690 ha         1 5O4       0.123000
@<TRIPOS>BOND
     1     1     2 ar  
     2     1    12 ar  
     3     1    21 1   
     4     2     3 ar  
     5     2    10 2   
     6     3     4 ar  
     7     3    20 2   
     8     4     5 1   
     9     4    11 ar  
    10     5     6 1   
    11     5     8 2   
    12     6     7 2   
    13     6    22 1   
    14     7    13 1   
    15     7    23 1   
    16     8    13 1   
    17     8    24 1   
    18     9    10 1   
    19     9    20 1   
    20     9    25 1   
    21    11    12 ar  
    22    12    26 1   
    23    14    15 ar  
    24    14    19 ar  
    25    14    31 1   
    26    15    16 ar  
    27    15    27 1   
    28    16    17 ar  
    29    16    28 1   
    30    17    18 ar  
    31    17    29 1   
    32    18    19 ar  
    33    18    30 1   
    34    19    20 1   
@<TRIPOS>SUBSTRUCTURE
     1 5O4         1 TEMP              0 ****  ****    0 ROOT
