@<TRIPOS>MOLECULE
5O4
   31    34     1     0     0
SMALL
bcc


@<TRIPOS>ATOM
      1 C1          -3.8110     0.1660     0.0220 ca         1 5O4      -0.218300
      2 C2          -2.6330     0.9380    -0.0140 ca         1 5O4      -0.050000
      3 C3          -1.3640     0.2920    -0.0060 ca         1 5O4      -0.253300
      4 C4          -1.3270    -1.1290    -0.0330 ca         1 5O4       0.578800
      5 C5          -0.0950    -1.9040    -0.1550 cc         1 5O4      -0.301800
      6 C6           0.1490    -3.1920     0.4250 cc         1 5O4      -0.226300
      7 C7           1.3830    -3.5570     0.0190 cd         1 5O4       0.209600
      8 C8           1.0180    -1.6170    -0.8820 cd         1 5O4       0.262600
      9 N1          -1.1990     2.4520     0.0010 na         1 5O4       0.072800
     10 N2          -2.5100     2.2600    -0.0170 nc         1 5O4      -0.279400
     11 N           -2.4390    -1.8180     0.0390 nb         1 5O4      -0.691000
     12 C           -3.6370    -1.1850     0.0780 ca         1 5O4       0.402200
     13 O            1.9130    -2.6080    -0.7820 os         1 5O4      -0.321800
     14 C15          1.7340     2.2480    -0.7470 ca         1 5O4      -0.106500
     15 C14          3.1140     2.3340    -0.6430 ca         1 5O4      -0.128500
     16 C13          3.7850     1.6040     0.3260 ca         1 5O4      -0.112000
     17 C12          3.0710     0.7920     1.1980 ca         1 5O4      -0.128500
     18 C11          1.6930     0.7080     1.1010 ca         1 5O4      -0.106500
     19 C10          1.0130     1.4330     0.1240 ca         1 5O4      -0.060800
     20 C9          -0.4440     1.3490     0.0270 cc         1 5O4      -0.012300
     21 H1          -4.7940     0.6160     0.0270 ha         1 5O4       0.153000
     22 H2          -0.5140    -3.7440     1.0690 ha         1 5O4       0.172000
     23 H3           1.9910    -4.4250     0.2100 h4         1 5O4       0.052100
     24 H4           1.2830    -0.7900    -1.5200 h4         1 5O4       0.058100
     25 H5          -0.8530     3.3980     0.0690 hn         1 5O4       0.323700
     26 H6          -4.4970    -1.8410     0.1410 h4         1 5O4       0.017100
     27 H8           3.6670     2.9630    -1.3280 ha         1 5O4       0.138000
     28 H9           4.8620     1.6660     0.4040 ha         1 5O4       0.136000
     29 H10          3.5900     0.2250     1.9590 ha         1 5O4       0.138000
     30 H11          1.1380     0.0840     1.7880 ha         1 5O4       0.141000
     31 H7           1.2190     2.7960    -1.5260 ha         1 5O4       0.141000
@<TRIPOS>BOND
     1     1     2 ar  
     2     1    12 ar  
     3     1    21 1   
     4     2     3 ar  
     5     2    10 2   
     6     3     4 ar  
     7     3    20 2   
     8     4     5 1   
     9     4    11 ar  
    10     5     6 1   
    11     5     8 2   
    12     6     7 2   
    13     6    22 1   
    14     7    13 1   
    15     7    23 1   
    16     8    13 1   
    17     8    24 1   
    18     9    10 1   
    19     9    20 1   
    20     9    25 1   
    21    11    12 ar  
    22    12    26 1   
    23    14    15 ar  
    24    14    19 ar  
    25    14    31 1   
    26    15    16 ar  
    27    15    27 1   
    28    16    17 ar  
    29    16    28 1   
    30    17    18 ar  
    31    17    29 1   
    32    18    19 ar  
    33    18    30 1   
    34    19    20 1   
@<TRIPOS>SUBSTRUCTURE
     1 5O4         1 TEMP              0 ****  ****    0 ROOT
