@<TRIPOS>MOLECULE
5O5
   21    22     1     0     0
SMALL
abcg2


@<TRIPOS>ATOM
      1 CL1          3.0460     1.9560    -0.3490 cl         1 5O5      -0.164000
      2 C02          2.1470     0.5050    -0.1210 ca         1 5O5       0.156000
      3 C03          2.7940    -0.7140    -0.0040 ca         1 5O5       0.086000
      4 CL2          4.5120    -0.8210    -0.0780 cl         1 5O5      -0.164000
      5 C05          2.0390    -1.8670     0.1780 ca         1 5O5      -0.059000
      6 C06          0.6630    -1.8040     0.2410 ca         1 5O5      -0.132000
      7 C07          0.0170    -0.5730     0.1230 ca         1 5O5       0.147100
      8 O08         -1.3280    -0.5970     0.2020 os         1 5O5      -0.351100
      9 C09         -2.0340     0.6100     0.0160 c3         1 5O5       0.132300
     10 C10         -3.4790     0.2800     0.0690 cc         1 5O5       0.383800
     11 N11         -4.0670    -0.7540    -0.5310 na         1 5O5      -0.197700
     12 N12         -5.3640    -0.7090    -0.2870 nc         1 5O5      -0.195800
     13 N13         -5.5600     0.3250     0.4320 nd         1 5O5      -0.039000
     14 N14         -4.4150     0.9630     0.6780 nd         1 5O5      -0.375000
     15 C15          0.7600     0.5860    -0.0580 ca         1 5O5      -0.186000
     16 H1           2.5370    -2.8230     0.2700 ha         1 5O5       0.138000
     17 H2           0.0840    -2.7060     0.3840 ha         1 5O5       0.137000
     18 H3          -1.8160     1.3440     0.7960 h1         1 5O5       0.074700
     19 H4          -1.7950     1.0620    -0.9530 h1         1 5O5       0.074700
     20 H5          -3.6700    -1.4980    -1.0900 hn         1 5O5       0.396000
     21 H6           0.2960     1.5580    -0.1480 ha         1 5O5       0.137000
@<TRIPOS>BOND
     1     1     2 1   
     2     2     3 ar  
     3     2    15 ar  
     4     3     4 1   
     5     3     5 ar  
     6     5     6 ar  
     7     5    16 1   
     8     6     7 ar  
     9     6    17 1   
    10     7     8 1   
    11     7    15 ar  
    12     8     9 1   
    13     9    10 1   
    14     9    18 1   
    15     9    19 1   
    16    10    11 1   
    17    10    14 2   
    18    11    12 1   
    19    11    20 1   
    20    12    13 2   
    21    13    14 1   
    22    15    21 1   
@<TRIPOS>SUBSTRUCTURE
     1 5O5         1 TEMP              0 ****  ****    0 ROOT
