@<TRIPOS>MOLECULE
5O5
   21    22     1     0     0
SMALL
No Charge or Current Charge


@<TRIPOS>ATOM
      1 Cl1          3.1590     2.0200     0.0100 cl         1 5O5      -0.164000
      2 C02          2.2270     0.5230     0.0070 ca         1 5O5       0.156000
      3 C03          2.8700    -0.7320     0.0130 ca         1 5O5       0.086000
      4 Cl2          4.6300    -0.8570     0.0240 cl         1 5O5      -0.164000
      5 C05          2.1020    -1.9090     0.0100 ca         1 5O5      -0.059000
      6 C06          0.6970    -1.8320     0.0000 ca         1 5O5      -0.132000
      7 C07          0.0530    -0.5840    -0.0060 ca         1 5O5       0.147100
      8 O08         -1.3260    -0.5730    -0.0140 os         1 5O5      -0.351100
      9 C09         -2.0900     0.6560    -0.0210 c3         1 5O5       0.132300
     10 C10         -3.5680     0.3440    -0.0300 cc         1 5O5       0.383800
     11 N11         -4.1330    -0.8990    -0.0320 na         1 5O5      -0.197700
     12 N12         -5.4860    -0.8060    -0.0410 nc         1 5O5      -0.195800
     13 N13         -5.7230     0.4780    -0.0440 nd         1 5O5      -0.039000
     14 N14         -4.5590     1.2120    -0.0380 nd         1 5O5      -0.375000
     15 C15          0.8230     0.5990    -0.0020 ca         1 5O5      -0.186000
     16 H1           2.5940    -2.8780     0.0140 ha         1 5O5       0.138000
     17 H2           0.1050    -2.7430    -0.0020 ha         1 5O5       0.137000
     18 H3          -1.8670     1.2570     0.8690 h1         1 5O5       0.074700
     19 H4          -1.8550     1.2540    -0.9110 h1         1 5O5       0.074700
     20 H5          -3.6420    -1.7850    -0.0280 hn         1 5O5       0.396000
     21 H6           0.3560     1.5790    -0.0070 ha         1 5O5       0.137000
@<TRIPOS>BOND
     1     1     2 1   
     2     2     3 ar  
     3     2    15 ar  
     4     3     4 1   
     5     3     5 ar  
     6     5     6 ar  
     7     5    16 1   
     8     6     7 ar  
     9     6    17 1   
    10     7     8 1   
    11     7    15 ar  
    12     8     9 1   
    13     9    10 1   
    14     9    18 1   
    15     9    19 1   
    16    10    11 1   
    17    10    14 2   
    18    11    12 1   
    19    11    20 1   
    20    12    13 2   
    21    13    14 1   
    22    15    21 1   
@<TRIPOS>SUBSTRUCTURE
     1 5O5         1 TEMP              0 ****  ****    0 ROOT
