@<TRIPOS>MOLECULE
5O6
   25    25     1     0     0
SMALL
bcc


@<TRIPOS>ATOM
      1 C01         -5.1040     0.3010    -0.4590 c3         1 5O6       0.132700
      2 O02         -4.1650    -0.6560    -0.0120 os         1 5O6      -0.329900
      3 C03         -2.8610    -0.3190    -0.0010 ca         1 5O6       0.100100
      4 C04         -1.9720    -1.2920     0.4630 ca         1 5O6      -0.191500
      5 C05         -0.6170    -1.0340     0.5110 ca         1 5O6      -0.103500
      6 C06         -0.0850     0.1960     0.1020 ca         1 5O6      -0.034800
      7 C07          1.3710     0.4700     0.1540 ce         1 5O6      -0.122400
      8 C08          1.7550     1.8970     0.4270 c3         1 5O6      -0.038900
      9 C09          2.2410    -0.5290    -0.0700 cf         1 5O6      -0.167200
     10 C10          3.7520    -0.5230    -0.0660 c          1 5O6       0.909800
     11 O11          4.2710    -1.5280    -0.5990 o          1 5O6      -0.830300
     12 O12          4.3720     0.4290     0.4540 o          1 5O6      -0.830300
     13 C13         -0.9920     1.1580    -0.3380 ca         1 5O6      -0.103500
     14 C14         -2.3590     0.9150    -0.4020 ca         1 5O6      -0.191500
     15 H1          -6.0830    -0.1660    -0.3810 h1         1 5O6       0.029700
     16 H2          -5.0940     1.2020     0.1600 h1         1 5O6       0.029700
     17 H3          -4.9340     0.5870    -1.5000 h1         1 5O6       0.029700
     18 H4          -2.3550    -2.2480     0.7990 ha         1 5O6       0.123000
     19 H5           0.0410    -1.8010     0.8980 ha         1 5O6       0.134000
     20 H6           1.1820     2.2960     1.2660 hc         1 5O6       0.034700
     21 H7           2.8140     1.9860     0.6400 hc         1 5O6       0.034700
     22 H8           1.5300     2.5320    -0.4340 hc         1 5O6       0.034700
     23 H9           1.8200    -1.4960    -0.3330 ha         1 5O6       0.096000
     24 H11         -0.6390     2.1290    -0.6610 ha         1 5O6       0.134000
     25 H12         -3.0080     1.7000    -0.7650 ha         1 5O6       0.123000
@<TRIPOS>BOND
     1     1     2 1   
     2     1    15 1   
     3     1    16 1   
     4     1    17 1   
     5     2     3 1   
     6     3     4 ar  
     7     3    14 ar  
     8     4     5 ar  
     9     4    18 1   
    10     5     6 ar  
    11     5    19 1   
    12     6     7 1   
    13     6    13 ar  
    14     7     8 1   
    15     7     9 2   
    16     8    20 1   
    17     8    21 1   
    18     8    22 1   
    19     9    10 1   
    20     9    23 1   
    21    10    11 1   
    22    10    12 1   
    23    13    14 ar  
    24    13    24 1   
    25    14    25 1   
@<TRIPOS>SUBSTRUCTURE
     1 5O6         1 TEMP              0 ****  ****    0 ROOT
