@<TRIPOS>MOLECULE
5O6
   25    25     1     0     0
SMALL
No Charge or Current Charge


@<TRIPOS>ATOM
      1 C01         -5.2050     0.2860    -0.4810 c3         1 5O6       0.155900
      2 O02         -4.2230    -0.6010     0.0820 os         1 5O6      -0.353100
      3 C03         -2.8750    -0.3070     0.0730 ca         1 5O6       0.100100
      4 C04         -1.9950    -1.2380     0.6470 ca         1 5O6      -0.173500
      5 C05         -0.6100    -0.9920     0.6670 ca         1 5O6      -0.085500
      6 C06         -0.0890     0.1930     0.1130 ca         1 5O6      -0.034800
      7 C07          1.3820     0.4450     0.1310 ce         1 5O6      -0.122400
      8 C08          1.7930     1.8140     0.6650 c3         1 5O6      -0.038900
      9 C09          2.2850    -0.5060    -0.2780 cf         1 5O6      -0.217200
     10 C10          3.7810    -0.4430    -0.3310 c          1 5O6       0.699200
     11 O11          4.3570    -1.4420    -0.7320 o          1 5O6      -0.725000
     12 O12          4.3730     0.5710     0.0060 o          1 5O6      -0.725000
     13 C13         -0.9730     1.1250    -0.4680 ca         1 5O6      -0.085500
     14 C14         -2.3580     0.8810    -0.4890 ca         1 5O6      -0.173500
     15 H1          -6.2100    -0.1380    -0.3670 h1         1 5O6       0.029700
     16 H2          -5.1870     1.2590     0.0260 h1         1 5O6       0.029700
     17 H3          -5.0210     0.4420    -1.5520 h1         1 5O6       0.029700
     18 H4          -2.3860    -2.1540     1.0810 ha         1 5O6       0.105000
     19 H5           0.0580    -1.7210     1.1200 ha         1 5O6       0.116000
     20 H6           0.9390     2.3760     1.0620 hc         1 5O6       0.034700
     21 H7           2.5110     1.7230     1.4880 hc         1 5O6       0.034700
     22 H8           2.2500     2.4270    -0.1210 hc         1 5O6       0.034700
     23 H9           1.8790    -1.4520    -0.6290 ha         1 5O6       0.146000
     24 H11         -0.5850     2.0390    -0.9120 ha         1 5O6       0.116000
     25 H12         -3.0100     1.6200    -0.9450 ha         1 5O6       0.105000
@<TRIPOS>BOND
     1     1     2 1   
     2     1    15 1   
     3     1    16 1   
     4     1    17 1   
     5     2     3 1   
     6     3     4 ar  
     7     3    14 ar  
     8     4     5 ar  
     9     4    18 1   
    10     5     6 ar  
    11     5    19 1   
    12     6     7 1   
    13     6    13 ar  
    14     7     8 1   
    15     7     9 2   
    16     8    20 1   
    17     8    21 1   
    18     8    22 1   
    19     9    10 1   
    20     9    23 1   
    21    10    11 1   
    22    10    12 1   
    23    13    14 ar  
    24    13    24 1   
    25    14    25 1   
@<TRIPOS>SUBSTRUCTURE
     1 5O6         1 TEMP              0 ****  ****    0 ROOT
