@<TRIPOS>MOLECULE
5O7
   45    48     1     0     0
SMALL
bcc


@<TRIPOS>ATOM
      1 C10          6.4630     2.9000     0.9200 c3         1 5O7       0.043600
      2 C13         -4.5800    -1.0070     0.9570 ca         1 5O7      -0.240000
      3 C14         -5.3370    -0.0370     0.3110 ca         1 5O7       0.170100
      4 C17         -3.3520     3.2060    -1.4790 c3         1 5O7       0.125700
      5 C18         -7.3830    -1.1130     0.8390 c3         1 5O7       0.125700
      6 O1          -6.6810    -0.0490     0.2270 os         1 5O7      -0.318900
      7 C12         -3.1960    -0.8810     0.9810 ca         1 5O7      -0.052000
      8 C15         -4.7050     1.0450    -0.3060 ca         1 5O7      -0.245000
      9 C16         -3.3230     1.1470    -0.2950 ca         1 5O7       0.154100
     10 O           -2.6360     2.1490    -0.8690 os         1 5O7      -0.320900
     11 C11         -2.5480     0.1680     0.3550 ca         1 5O7       0.089600
     12 C           -0.2220    -0.6070     0.0590 ca         1 5O7       0.913900
     13 N1          -0.6660    -1.8330    -0.3230 nb         1 5O7      -0.730000
     14 C3           0.2360    -2.7200    -0.6070 ca         1 5O7       0.493200
     15 C2           1.6260    -2.4590    -0.5380 ca         1 5O7      -0.304600
     16 C4           2.6240    -3.4010    -0.8280 ca         1 5O7      -0.205300
     17 C5           3.9250    -2.9920    -0.7230 ca         1 5O7       0.386200
     18 N2           4.2780    -1.7450    -0.3660 nb         1 5O7      -0.685000
     19 C6           3.3700    -0.8340    -0.0870 ca         1 5O7       0.487500
     20 C1           1.9750    -1.1520    -0.1530 ca         1 5O7       0.369300
     21 N            1.0390    -0.2380     0.1450 nb         1 5O7      -0.774000
     22 C7           3.8660     0.4860     0.2810 cc         1 5O7      -0.345800
     23 C9           3.2080     1.6910     0.6170 cc         1 5O7       0.360200
     24 N4           4.0710     2.6520     0.8780 nd         1 5O7      -0.544800
     25 N3           5.2750     2.1040     0.7230 na         1 5O7       0.109400
     26 C8           5.2100     0.8190     0.3670 cd         1 5O7      -0.087300
     27 H1           6.4510     3.3490     1.9110 h1         1 5O7       0.056033
     28 H2           7.3360     2.2610     0.8310 h1         1 5O7       0.056033
     29 H3           6.5220     3.6880     0.1710 h1         1 5O7       0.056033
     30 H4          -5.0350    -1.8520     1.4530 ha         1 5O7       0.140000
     31 H5          -3.9470     2.8580    -2.3270 h1         1 5O7       0.044033
     32 H6          -4.0090     3.7130    -0.7690 h1         1 5O7       0.044033
     33 H7          -2.6080     3.9120    -1.8390 h1         1 5O7       0.044033
     34 H8          -7.1070    -2.0820     0.4160 h1         1 5O7       0.041367
     35 H9          -7.2230    -1.1410     1.9190 h1         1 5O7       0.041367
     36 H10         -8.4390    -0.9370     0.6460 h1         1 5O7       0.041367
     37 H11         -2.6140    -1.6280     1.5020 ha         1 5O7       0.147000
     38 H12         -5.3170     1.7880    -0.8000 ha         1 5O7       0.151000
     39 H13         -0.7850     1.2430     0.5590 hn         1 5O7       0.464800
     40 H14         -0.1110    -3.7030    -0.9160 h4         1 5O7       0.025100
     41 H15          2.3690    -4.4100    -1.1240 ha         1 5O7       0.141000
     42 H16          4.7410    -3.6740    -0.9320 h4         1 5O7       0.019100
     43 H17          2.1500     1.8780     0.6750 h4         1 5O7       0.055100
     44 H18          6.0950     0.2280     0.1990 h4         1 5O7       0.184000
     45 N5          -1.1530     0.3210     0.3770 nu         1 5O7      -0.728300
@<TRIPOS>BOND
     1     1    25 1   
     2     1    27 1   
     3     1    28 1   
     4     1    29 1   
     5     2     3 ar  
     6     2     7 ar  
     7     2    30 1   
     8     3     6 1   
     9     3     8 ar  
    10     4    10 1   
    11     4    31 1   
    12     4    32 1   
    13     4    33 1   
    14     5     6 1   
    15     5    34 1   
    16     5    35 1   
    17     5    36 1   
    18     7    11 ar  
    19     7    37 1   
    20     8     9 ar  
    21     8    38 1   
    22     9    10 1   
    23     9    11 ar  
    24    11    45 1   
    25    12    13 ar  
    26    12    21 ar  
    27    12    45 1   
    28    13    14 ar  
    29    14    15 ar  
    30    14    40 1   
    31    15    16 ar  
    32    15    20 ar  
    33    16    17 ar  
    34    16    41 1   
    35    17    18 ar  
    36    17    42 1   
    37    18    19 ar  
    38    19    20 ar  
    39    19    22 1   
    40    20    21 ar  
    41    22    23 1   
    42    22    26 2   
    43    23    24 2   
    44    23    43 1   
    45    24    25 1   
    46    25    26 1   
    47    26    44 1   
    48    39    45 1   
@<TRIPOS>SUBSTRUCTURE
     1 5O7         1 TEMP              0 ****  ****    0 ROOT
