@<TRIPOS>MOLECULE
5O7
   45    48     1     0     0
SMALL
No Charge or Current Charge


@<TRIPOS>ATOM
      1 C10          6.3640     3.1260     0.6140 c3         1 5O7       0.072900
      2 C13         -4.7430    -1.1040     0.6090 ca         1 5O7      -0.222000
      3 C14         -5.4450     0.0660     0.2630 ca         1 5O7       0.170100
      4 C17         -3.2350     3.5610    -0.9250 c3         1 5O7       0.148900
      5 C18         -7.6440    -0.9680     0.6940 c3         1 5O7       0.148900
      6 O1          -6.8210     0.1460     0.3030 os         1 5O7      -0.342100
      7 C12         -3.3370    -1.1280     0.5500 ca         1 5O7      -0.034000
      8 C15         -4.7380     1.2090    -0.1320 ca         1 5O7      -0.227000
      9 C16         -3.3260     1.1940    -0.1920 ca         1 5O7       0.154100
     10 O           -2.6030     2.3180    -0.5700 os         1 5O7      -0.344100
     11 C11         -2.6110     0.0100     0.1360 ca         1 5O7       0.228000
     12 C           -0.1970    -0.9320    -0.0340 ca         1 5O7       0.387900
     13 N1          -0.5380    -2.2150    -0.2440 nb         1 5O7      -0.204000
     14 C3           0.4760    -3.0880    -0.3710 ca         1 5O7       0.164900
     15 C2           1.8160    -2.6680    -0.2960 ca         1 5O7      -0.174000
     16 C4           2.8800    -3.5740    -0.4290 ca         1 5O7      -0.122000
     17 C5           4.1930    -3.0910    -0.3480 ca         1 5O7       0.320900
     18 N2           4.4860    -1.7890    -0.1460 nb         1 5O7      -0.685000
     19 C6           3.4680    -0.8930    -0.0150 ca         1 5O7       0.487500
     20 C1           2.0930    -1.2950    -0.0840 ca         1 5O7       0.041000
     21 N            1.0510    -0.4370     0.0410 nb         1 5O7      -0.248000
     22 C7           3.8930     0.5060     0.2030 cc         1 5O7      -0.280500
     23 C9           3.1570     1.6890     0.3880 cc         1 5O7       0.294900
     24 N4           3.9060     2.7620     0.5560 nd         1 5O7      -0.544800
     25 N3           5.1930     2.2490     0.4760 na         1 5O7       0.130800
     26 C8           5.2130     0.8680     0.2610 cd         1 5O7      -0.120000
     27 H1           6.3440     3.6120     1.5970 h1         1 5O7       0.056033
     28 H2           7.2830     2.5360     0.5210 h1         1 5O7       0.056033
     29 H3           6.3430     3.8910    -0.1710 h1         1 5O7       0.056033
     30 H4          -5.2630    -2.0010     0.9320 ha         1 5O7       0.122000
     31 H5          -3.8980     3.4300    -1.7890 h1         1 5O7       0.044033
     32 H6          -3.8230     3.9540    -0.0850 h1         1 5O7       0.044033
     33 H7          -2.4790     4.3100    -1.1890 h1         1 5O7       0.044033
     34 H8          -7.4900    -1.8220     0.0220 h1         1 5O7       0.041367
     35 H9          -7.4140    -1.2810     1.7210 h1         1 5O7       0.041367
     36 H10         -8.7040    -0.6900     0.6530 h1         1 5O7       0.041367
     37 H11         -2.8220    -2.0340     0.8480 ha         1 5O7       0.129000
     38 H12         -5.3050     2.0990    -0.3840 ha         1 5O7       0.133000
     39 H13         -0.8310     0.9740    -0.0240 hn         1 5O7       0.520000
     40 H14          0.2100    -4.1310    -0.5370 h4         1 5O7       0.025100
     41 H15          2.7020    -4.6330    -0.5940 ha         1 5O7       0.123000
     42 H16          5.0400    -3.7690    -0.4470 h4         1 5O7       0.019100
     43 H17          2.0840     1.8200     0.4080 h4         1 5O7       0.055100
     44 H18          6.1280     0.2930     0.1720 h4         1 5O7       0.166000
     45 N5          -1.1990     0.0260     0.0740 nu         1 5O7      -0.921900
@<TRIPOS>BOND
     1     1    25 1   
     2     1    27 1   
     3     1    28 1   
     4     1    29 1   
     5     2     3 ar  
     6     2     7 ar  
     7     2    30 1   
     8     3     6 1   
     9     3     8 ar  
    10     4    10 1   
    11     4    31 1   
    12     4    32 1   
    13     4    33 1   
    14     5     6 1   
    15     5    34 1   
    16     5    35 1   
    17     5    36 1   
    18     7    11 ar  
    19     7    37 1   
    20     8     9 ar  
    21     8    38 1   
    22     9    10 1   
    23     9    11 ar  
    24    11    45 1   
    25    12    13 ar  
    26    12    21 ar  
    27    12    45 1   
    28    13    14 ar  
    29    14    15 ar  
    30    14    40 1   
    31    15    16 ar  
    32    15    20 ar  
    33    16    17 ar  
    34    16    41 1   
    35    17    18 ar  
    36    17    42 1   
    37    18    19 ar  
    38    19    20 ar  
    39    19    22 1   
    40    20    21 ar  
    41    22    23 1   
    42    22    26 2   
    43    23    24 2   
    44    23    43 1   
    45    24    25 1   
    46    25    26 1   
    47    26    44 1   
    48    39    45 1   
@<TRIPOS>SUBSTRUCTURE
     1 5O7         1 TEMP              0 ****  ****    0 ROOT
