@<TRIPOS>MOLECULE
5O8
   54    57     1     0     0
SMALL
No Charge or Current Charge


@<TRIPOS>ATOM
      1 C4           2.5670    -1.3760    -0.4570 cc         1 5O8       0.219400
      2 C5           3.5660    -0.5330    -0.0480 cd         1 5O8      -0.356600
      3 C6           4.8310    -0.4250    -0.7800 c          1 5O8       0.637600
      4 C8           1.8460    -0.3570     1.4070 cc         1 5O8      -0.040300
      5 N1           4.8440    -1.2390    -1.8610 ns         1 5O8      -0.450400
      6 N3           2.6770    -2.1770    -1.5670 nc         1 5O8      -0.710100
      7 CAM          2.6440     3.0290     0.6180 ca         1 5O8      -0.081000
      8 CAK          2.6460     4.3030     0.0230 ca         1 5O8      -0.102000
      9 CAJ          3.8220     5.0700     0.0020 ca         1 5O8      -0.070000
     10 CAL          4.9980     4.5620     0.5780 ca         1 5O8      -0.102000
     11 CAN          4.9990     3.2880     1.1730 ca         1 5O8      -0.081000
     12 CAW          3.8240     2.5100     1.1940 ca         1 5O8      -0.157300
     13 N7           3.1060     0.0940     1.0920 na         1 5O8       0.076300
     14 O6           5.7710     0.2880    -0.4770 o          1 5O8      -0.479000
     15 C2           3.8200    -2.0410    -2.1910 cd         1 5O8       0.786800
     16 N9           1.4910    -1.2700     0.4210 na         1 5O8      -0.002000
     17 CBD          0.2480    -2.0420     0.3400 c5         1 5O8       0.313300
     18 OAU         -0.7970    -1.1920    -0.2130 os         1 5O8      -0.446000
     19 CBB         -0.3150    -2.6160     1.6960 c5         1 5O8       0.110300
     20 OAF         -0.8650    -3.9370     1.5640 oh         1 5O8      -0.692000
     21 CBA         -1.4710    -1.6150     1.9950 c5         1 5O8       0.101300
     22 OAE         -2.4420    -2.1930     2.8840 oh         1 5O8      -0.684000
     23 CBC         -2.0060    -1.4020     0.5520 c5         1 5O8       0.127300
     24 CAP         -2.9710    -0.1970     0.3700 c3         1 5O8       0.243800
     25 NAS         -3.1000     0.2470    -1.0420 n7         1 5O8      -0.950300
     26 SBH         -3.9970    -0.6280    -2.1620 s6         1 5O8       1.199100
     27 OAC         -3.8550     0.1240    -3.4130 o          1 5O8      -0.471000
     28 OAD         -3.5230    -2.0120    -2.0840 o          1 5O8      -0.471000
     29 CBG         -5.7520    -0.5050    -1.5890 c3         1 5O8       0.119000
     30 FAH         -6.1150     0.7820    -1.3690 f          1 5O8      -0.099333
     31 FAI         -6.6020    -1.0140    -2.5130 f          1 5O8      -0.099333
     32 FAG         -5.9560    -1.1900    -0.4370 f          1 5O8      -0.099333
     33 H1           1.2400    -0.0310     2.2430 h5         1 5O8       0.223000
     34 H2           5.6900    -1.2480    -2.4040 hn         1 5O8       0.352500
     35 H3           4.4690    -2.3790    -4.0350 hn         1 5O8       0.535000
     36 H4           3.0940    -3.2420    -3.5380 hn         1 5O8       0.535000
     37 H6           1.7330     4.6960    -0.4200 ha         1 5O8       0.132500
     38 H7           3.8220     6.0560    -0.4590 ha         1 5O8       0.134000
     39 H8           5.9100     5.1550     0.5630 ha         1 5O8       0.132500
     40 H9           5.9180     2.9060     1.6140 ha         1 5O8       0.116000
     41 H12          0.4600    -2.8730    -0.3440 h2         1 5O8       0.149700
     42 H13          0.4470    -2.5980     2.4890 h1         1 5O8       0.078700
     43 H14         -1.6820    -3.9090     2.1270 ho         1 5O8       0.546000
     44 H15         -1.0820    -0.6720     2.4040 h1         1 5O8       0.045700
     45 H16         -2.3820    -1.7190     3.7500 ho         1 5O8       0.532000
     46 H17         -2.5030    -2.3130     0.1890 h1         1 5O8       0.120700
     47 H18         -3.9430    -0.4340     0.8220 h1         1 5O8       0.073700
     48 H19         -2.5560     0.6310     0.9610 h1         1 5O8       0.073700
     49 H20         -2.1720     0.1850    -1.4640 hn         1 5O8       0.525000
     50 N2           3.9570    -2.7910    -3.2660 nv         1 5O8      -1.019200
     51 CAQ          3.8420     1.1260     1.8470 c3         1 5O8       0.117900
     52 H5           1.7220     2.4510     0.6280 ha         1 5O8       0.116000
     53 H10          4.8770     0.7840     1.9730 h1         1 5O8       0.094700
     54 H11          3.4060     1.2010     2.8500 h1         1 5O8       0.094700
@<TRIPOS>BOND
     1     1     2 2   
     2     1     6 1   
     3     1    16 1   
     4     2     3 1   
     5     2    13 1   
     6     3     5 1   
     7     3    14 2   
     8     4    13 2   
     9     4    16 1   
    10     4    33 1   
    11     5    15 1   
    12     5    34 1   
    13     6    15 2   
    14     7     8 ar  
    15     7    12 ar  
    16     7    52 1   
    17     8     9 ar  
    18     8    37 1   
    19     9    10 ar  
    20     9    38 1   
    21    10    11 ar  
    22    10    39 1   
    23    11    12 ar  
    24    11    40 1   
    25    12    51 1   
    26    13    51 1   
    27    15    50 1   
    28    16    17 1   
    29    17    18 1   
    30    17    19 1   
    31    17    41 1   
    32    18    23 1   
    33    19    20 1   
    34    19    21 1   
    35    19    42 1   
    36    20    43 1   
    37    21    22 1   
    38    21    23 1   
    39    21    44 1   
    40    22    45 1   
    41    23    24 1   
    42    23    46 1   
    43    24    25 1   
    44    24    47 1   
    45    24    48 1   
    46    25    26 1   
    47    25    49 1   
    48    26    27 2   
    49    26    28 2   
    50    26    29 1   
    51    29    30 1   
    52    29    31 1   
    53    29    32 1   
    54    35    50 1   
    55    36    50 1   
    56    51    53 1   
    57    51    54 1   
@<TRIPOS>SUBSTRUCTURE
     1 5O8         1 TEMP              0 ****  ****    0 ROOT
