@<TRIPOS>MOLECULE
5O8
   54    57     1     0     0
SMALL
abcg2


@<TRIPOS>ATOM
      1 C4           2.7460    -1.3490    -0.2190 cc         1 5O8       0.219400
      2 C5           3.3600    -0.3470     0.4940 cd         1 5O8      -0.356600
      3 C6           4.7640    -0.4190     0.7460 c          1 5O8       0.637600
      4 C8           1.2260     0.0950     0.4300 cc         1 5O8      -0.040300
      5 N1           5.2950    -1.5510     0.1280 ns         1 5O8      -0.450400
      6 N3           3.3000    -2.4180    -0.7770 nc         1 5O8      -0.710100
      7 CAM          2.1830     3.3590    -0.3740 ca         1 5O8      -0.081000
      8 CAK          2.6100     4.3360    -1.2610 ca         1 5O8      -0.102000
      9 CAJ          3.8980     4.8480    -1.1640 ca         1 5O8      -0.070000
     10 CAL          4.7540     4.3800    -0.1770 ca         1 5O8      -0.102000
     11 CAN          4.3280     3.3970     0.7070 ca         1 5O8      -0.081000
     12 CAW          3.0410     2.8810     0.6130 ca         1 5O8      -0.157300
     13 N7           2.3780     0.5360     0.8870 na         1 5O8       0.076300
     14 O6           5.4570     0.3390     1.3930 o          1 5O8      -0.479000
     15 C2           4.6030    -2.4870    -0.5880 cd         1 5O8       0.786800
     16 N9           1.4070    -1.0490    -0.2390 na         1 5O8      -0.002000
     17 CBD          0.3780    -1.8510    -0.9210 c5         1 5O8       0.313300
     18 OAU         -0.8020    -1.1200    -0.9460 os         1 5O8      -0.446000
     19 CBB          0.0980    -3.1480    -0.1630 c5         1 5O8       0.110300
     20 OAF         -0.3510    -4.0800    -1.1030 oh         1 5O8      -0.692000
     21 CBA         -1.0420    -2.7030     0.7630 c5         1 5O8       0.101300
     22 OAE         -1.8800    -3.7420     1.1730 oh         1 5O8      -0.684000
     23 CBC         -1.8070    -1.7380    -0.1370 c5         1 5O8       0.127300
     24 CAP         -2.5750    -0.6820     0.6290 c3         1 5O8       0.243800
     25 NAS         -3.2670     0.2600    -0.2340 n7         1 5O8      -0.950300
     26 SBH         -4.7910     0.0930    -0.7200 s6         1 5O8       1.199100
     27 OAC         -4.9910     0.8260    -1.9480 o          1 5O8      -0.471000
     28 OAD         -5.2080    -1.2820    -0.5560 o          1 5O8      -0.471000
     29 CBG         -5.7410     1.0290     0.5540 c3         1 5O8       0.119000
     30 FAH         -5.3750     2.3000     0.5420 f          1 5O8      -0.099333
     31 FAI         -7.0350     0.9410     0.2940 f          1 5O8      -0.099333
     32 FAG         -5.5000     0.5180     1.7530 f          1 5O8      -0.099333
     33 H1           0.2840     0.5960     0.5710 h5         1 5O8       0.223000
     34 H2           6.2920    -1.6850     0.2570 hn         1 5O8       0.352500
     35 H3           6.2840    -3.5990    -0.9800 hn         1 5O8       0.535000
     36 H4           4.8040    -4.2100    -1.6170 hn         1 5O8       0.535000
     37 H6           1.9350     4.7040    -2.0220 ha         1 5O8       0.132500
     38 H7           4.2310     5.6120    -1.8540 ha         1 5O8       0.134000
     39 H8           5.7580     4.7770    -0.0950 ha         1 5O8       0.132500
     40 H9           5.0010     3.0270     1.4690 ha         1 5O8       0.116000
     41 H12          0.7520    -2.0340    -1.9320 h2         1 5O8       0.149700
     42 H13          0.9740    -3.5070     0.3880 h1         1 5O8       0.078700
     43 H14         -0.9280    -4.7070    -0.6490 ho         1 5O8       0.546000
     44 H15         -0.6230    -2.1610     1.6210 h1         1 5O8       0.045700
     45 H16         -1.5130    -4.1490     1.9640 ho         1 5O8       0.532000
     46 H17         -2.4960    -2.2920    -0.7840 h1         1 5O8       0.120700
     47 H18         -3.2870    -1.1830     1.2840 h1         1 5O8       0.073700
     48 H19         -1.9130    -0.1050     1.2760 h1         1 5O8       0.073700
     49 H20         -2.7430     1.0170    -0.6550 hn         1 5O8       0.525000
     50 N2           5.2900    -3.4990    -1.0980 nv         1 5O8      -1.019200
     51 CAQ          2.5710     1.8180     1.5700 c3         1 5O8       0.117900
     52 H5           1.1700     2.9800    -0.4520 ha         1 5O8       0.116000
     53 H10          3.2820     1.6630     2.3770 h1         1 5O8       0.094700
     54 H11          1.6130     2.0810     2.0170 h1         1 5O8       0.094700
@<TRIPOS>BOND
     1     1     2 2   
     2     1     6 1   
     3     1    16 1   
     4     2     3 1   
     5     2    13 1   
     6     3     5 1   
     7     3    14 2   
     8     4    13 2   
     9     4    16 1   
    10     4    33 1   
    11     5    15 1   
    12     5    34 1   
    13     6    15 2   
    14     7     8 ar  
    15     7    12 ar  
    16     7    52 1   
    17     8     9 ar  
    18     8    37 1   
    19     9    10 ar  
    20     9    38 1   
    21    10    11 ar  
    22    10    39 1   
    23    11    12 ar  
    24    11    40 1   
    25    12    51 1   
    26    13    51 1   
    27    15    50 1   
    28    16    17 1   
    29    17    18 1   
    30    17    19 1   
    31    17    41 1   
    32    18    23 1   
    33    19    20 1   
    34    19    21 1   
    35    19    42 1   
    36    20    43 1   
    37    21    22 1   
    38    21    23 1   
    39    21    44 1   
    40    22    45 1   
    41    23    24 1   
    42    23    46 1   
    43    24    25 1   
    44    24    47 1   
    45    24    48 1   
    46    25    26 1   
    47    25    49 1   
    48    26    27 2   
    49    26    28 2   
    50    26    29 1   
    51    29    30 1   
    52    29    31 1   
    53    29    32 1   
    54    35    50 1   
    55    36    50 1   
    56    51    53 1   
    57    51    54 1   
@<TRIPOS>SUBSTRUCTURE
     1 5O8         1 TEMP              0 ****  ****    0 ROOT
