@<TRIPOS>MOLECULE
5OB
   19    20     1     0     0
SMALL
bcc


@<TRIPOS>ATOM
      1 N3          -1.2290     0.0290    -2.1720 na         1 5OB      -0.273300
      2 N1           0.9570     0.0190    -2.5760 nc         1 5OB      -0.565100
      3 C2          -0.2340     0.0310    -3.0960 cd         1 5OB       0.409700
      4 C7A          0.7440     0.0070    -1.2140 ca         1 5OB       0.030400
      5 C3A         -0.6350     0.0140    -0.9400 ca         1 5OB      -0.043200
      6 C4          -1.1520     0.0050     0.3470 ca         1 5OB      -0.183000
      7 C5          -0.2350    -0.0120     1.3920 ca         1 5OB       0.157100
      8 C6           1.1510    -0.0200     1.1400 ca         1 5OB      -0.230000
      9 C7           1.6430    -0.0100    -0.1540 ca         1 5OB      -0.028000
     10 O10         -0.7630    -0.0210     2.6360 os         1 5OB      -0.322900
     11 C11          0.1080    -0.0320     3.7480 c3         1 5OB       0.127700
     12 H31N        -2.2160     0.0370    -2.3710 hn         1 5OB       0.306700
     13 H21         -0.4550     0.0410    -4.1530 h5         1 5OB       0.060800
     14 H41         -2.2170     0.0100     0.5420 ha         1 5OB       0.149000
     15 H61          1.8580    -0.0320     1.9570 ha         1 5OB       0.136000
     16 H71          2.7110    -0.0140    -0.3290 ha         1 5OB       0.146000
     17 H111        -0.5220    -0.0330     4.6330 h1         1 5OB       0.040033
     18 H112         0.7380    -0.9250     3.7690 h1         1 5OB       0.040033
     19 H113         0.7490     0.8530     3.7770 h1         1 5OB       0.040033
@<TRIPOS>BOND
     1     1     3 1   
     2     1     5 1   
     3     1    12 1   
     4     2     3 2   
     5     2     4 1   
     6     3    13 1   
     7     4     5 ar  
     8     4     9 ar  
     9     5     6 ar  
    10     6     7 ar  
    11     6    14 1   
    12     7     8 ar  
    13     7    10 1   
    14     8     9 ar  
    15     8    15 1   
    16     9    16 1   
    17    10    11 1   
    18    11    17 1   
    19    11    18 1   
    20    11    19 1   
@<TRIPOS>SUBSTRUCTURE
     1 5OB         1 TEMP              0 ****  ****    0 ROOT
