@<TRIPOS>MOLECULE
5OB
   19    20     1     0     0
SMALL
No Charge or Current Charge


@<TRIPOS>ATOM
      1 N3          -1.2710     0.0290    -2.1830 na         1 5OB      -0.323600
      2 N1           0.9940     0.0170    -2.6040 nc         1 5OB      -0.565100
      3 C2          -0.2450     0.0300    -3.1400 cd         1 5OB       0.409700
      4 C7A          0.7360     0.0070    -1.2450 ca         1 5OB       0.030400
      5 C3A         -0.6040     0.0140    -0.9910 ca         1 5OB      -0.043200
      6 C4          -1.1280     0.0060     0.3070 ca         1 5OB      -0.165000
      7 C5          -0.2260    -0.0100     1.3880 ca         1 5OB       0.157100
      8 C6           1.1730    -0.0170     1.1390 ca         1 5OB      -0.212000
      9 C7           1.6600    -0.0090    -0.1880 ca         1 5OB      -0.010000
     10 O10         -0.7520    -0.0170     2.6640 os         1 5OB      -0.346100
     11 C11          0.0820    -0.0340     3.8360 c3         1 5OB       0.150900
     12 H31N        -2.2670     0.0370    -2.3560 hn         1 5OB       0.357000
     13 H21         -0.4730     0.0410    -4.2000 h5         1 5OB       0.060800
     14 H41         -2.2010     0.0120     0.4800 ha         1 5OB       0.131000
     15 H61          1.8910    -0.0290     1.9530 ha         1 5OB       0.118000
     16 H71          2.7280    -0.0140    -0.3890 ha         1 5OB       0.128000
     17 H111        -0.5360    -0.0370     4.7430 h1         1 5OB       0.040033
     18 H112         0.7150    -0.9300     3.8530 h1         1 5OB       0.040033
     19 H113         0.7270     0.8540     3.8690 h1         1 5OB       0.040033
@<TRIPOS>BOND
     1     1     3 1   
     2     1     5 1   
     3     1    12 1   
     4     2     3 2   
     5     2     4 1   
     6     3    13 1   
     7     4     5 ar  
     8     4     9 ar  
     9     5     6 ar  
    10     6     7 ar  
    11     6    14 1   
    12     7     8 ar  
    13     7    10 1   
    14     8     9 ar  
    15     8    15 1   
    16     9    16 1   
    17    10    11 1   
    18    11    17 1   
    19    11    18 1   
    20    11    19 1   
@<TRIPOS>SUBSTRUCTURE
     1 5OB         1 TEMP              0 ****  ****    0 ROOT
