@<TRIPOS>MOLECULE
5OD
   42    44     1     0     0
SMALL
No Charge or Current Charge


@<TRIPOS>ATOM
      1 C1           1.0690    -0.5470     0.3130 cp         1 5OD       0.218500
      2 C3          -0.8410     0.2090     1.3470 ca         1 5OD       0.174900
      3 C11         -5.0490     1.3900     0.4510 c6         1 5OD      -0.098400
      4 C12         -6.0040     0.2600    -0.0140 c6         1 5OD       0.177200
      5 C13         -5.2180    -0.7090    -0.9380 c6         1 5OD      -0.098400
      6 C14         -3.9060    -1.2210    -0.2910 c6         1 5OD       0.212300
      7 C15          3.4610     0.3470     0.3920 ca         1 5OD       0.139000
      8 C16          4.8550     0.1130     0.4200 ca         1 5OD       0.111000
      9 C17          5.3530    -1.1990     0.3880 ca         1 5OD      -0.095000
     10 C18          4.4680    -2.2860     0.3220 ca         1 5OD      -0.107000
     11 C19          3.0820    -2.0610     0.2940 ca         1 5OD      -0.095000
     12 C23         -7.2240     0.8580    -0.7680 c3         1 5OD      -0.081100
     13 N2           0.5130     0.0590     1.3960 nb         1 5OD      -0.564000
     14 C4          -1.6380    -0.2450     0.2390 ca         1 5OD       0.620900
     15 N5          -1.0880    -0.8570    -0.8370 nb         1 5OD      -0.811000
     16 C6           0.2350    -1.0020    -0.7790 ca         1 5OD       0.624900
     17 N7           0.6430    -1.6110    -1.9100 nv         1 5OD      -1.053900
     18 C8           2.5520    -0.7470     0.3360 cp         1 5OD      -0.102500
     19 N9          -3.0440    -0.0880     0.1590 nh         1 5OD      -0.762300
     20 C10         -3.7460     0.8450     1.0840 c6         1 5OD       0.212300
     21 Cl2          6.0050     1.4510     0.4840 cl         1 5OD      -0.176000
     22 N22         -6.5290    -0.4660     1.1580 n8         1 5OD      -0.998200
     23 H1          -1.2940     0.6900     2.2110 h4         1 5OD       0.032100
     24 H2          -4.7840     2.0240    -0.4060 hc         1 5OD       0.057200
     25 H3          -5.5570     2.0470     1.1700 hc         1 5OD       0.057200
     26 H4          -5.8460    -1.5650    -1.2210 hc         1 5OD       0.057200
     27 H5          -4.9650    -0.1960    -1.8750 hc         1 5OD       0.057200
     28 H6          -4.1480    -1.8680     0.5660 h1         1 5OD       0.049450
     29 H7          -3.3930    -1.8540    -1.0300 h1         1 5OD       0.049450
     30 H8           6.4260    -1.3730     0.4090 ha         1 5OD       0.131000
     31 H9           4.8550    -3.3030     0.2950 ha         1 5OD       0.123000
     32 H10          2.4070    -2.9140     0.2500 ha         1 5OD       0.129000
     33 H11         -6.9060     1.4170    -1.6570 hc         1 5OD       0.040367
     34 H12         -7.9130     0.0740    -1.1070 hc         1 5OD       0.040367
     35 H13         -7.7910     1.5500    -0.1340 hc         1 5OD       0.040367
     36 H14          1.6080    -1.4780    -2.1930 hn         1 5OD       0.479500
     37 H15         -0.0500    -1.6360    -2.6470 hn         1 5OD       0.479500
     38 H16         -3.1060     1.7070     1.3230 h1         1 5OD       0.049450
     39 H17         -3.9790     0.3360     2.0320 h1         1 5OD       0.049450
     40 H18         -7.5330    -0.2720     1.2390 hn         1 5OD       0.395000
     41 H19         -6.4960    -1.4720     0.9650 hn         1 5OD       0.395000
     42 Cl1          2.8710     2.0160     0.3790 cl         1 5OD      -0.161000
@<TRIPOS>BOND
     1     1    13 ar  
     2     1    16 ar  
     3     1    18 1   
     4     2    13 ar  
     5     2    14 ar  
     6     2    23 1   
     7     3     4 1   
     8     3    20 1   
     9     3    24 1   
    10     3    25 1   
    11     4     5 1   
    12     4    12 1   
    13     4    22 1   
    14     5     6 1   
    15     5    26 1   
    16     5    27 1   
    17     6    19 1   
    18     6    28 1   
    19     6    29 1   
    20     7     8 ar  
    21     7    18 ar  
    22     7    42 1   
    23     8     9 ar  
    24     8    21 1   
    25     9    10 ar  
    26     9    30 1   
    27    10    11 ar  
    28    10    31 1   
    29    11    18 ar  
    30    11    32 1   
    31    12    33 1   
    32    12    34 1   
    33    12    35 1   
    34    14    15 ar  
    35    14    19 1   
    36    15    16 ar  
    37    16    17 1   
    38    17    36 1   
    39    17    37 1   
    40    19    20 1   
    41    20    38 1   
    42    20    39 1   
    43    22    40 1   
    44    22    41 1   
@<TRIPOS>SUBSTRUCTURE
     1 5OD         1 TEMP              0 ****  ****    0 ROOT
