@<TRIPOS>MOLECULE
5OD
   42    44     1     0     0
SMALL
bcc


@<TRIPOS>ATOM
      1 C1           0.9820    -0.4880     0.2080 cp         1 5OD       0.218500
      2 C3          -0.8840     0.4920     1.1030 ca         1 5OD       0.174900
      3 C11         -5.0940     1.2900     0.6850 c6         1 5OD      -0.098400
      4 C12         -5.9890     0.2330     0.0400 c6         1 5OD       0.177200
      5 C13         -5.1810    -0.3810    -1.1110 c6         1 5OD      -0.098400
      6 C14         -3.8440    -0.9380    -0.6600 c6         1 5OD       0.212300
      7 C15          3.3680     0.3000     0.1620 ca         1 5OD       0.047400
      8 C16          4.7300     0.0390     0.2790 ca         1 5OD       0.019400
      9 C17          5.1820    -1.2490     0.5170 ca         1 5OD      -0.113000
     10 C18          4.2670    -2.2810     0.6360 ca         1 5OD      -0.125000
     11 C19          2.9110    -2.0230     0.5250 ca         1 5OD      -0.113000
     12 C23         -7.2510     0.8860    -0.5090 c3         1 5OD      -0.081100
     13 N2           0.4180     0.2920     1.1120 nb         1 5OD      -0.564000
     14 C4          -1.6980    -0.1200     0.1230 ca         1 5OD       0.620900
     15 N5          -1.1330    -0.9000    -0.7950 nb         1 5OD      -0.811000
     16 C6           0.1780    -1.0910    -0.7820 ca         1 5OD       0.624900
     17 N7           0.6920    -1.9150    -1.7320 nv         1 5OD      -0.943500
     18 C8           2.4370    -0.7330     0.2930 cp         1 5OD      -0.102500
     19 N9          -3.0500     0.0560     0.0560 nh         1 5OD      -0.762300
     20 C10         -3.7380     0.7570     1.1280 c6         1 5OD       0.212300
     21 CL2          5.8820     1.3120     0.1200 cl         1 5OD      -0.084400
     22 N22         -6.3960    -0.7380     1.0540 n8         1 5OD      -0.887800
     23 H1          -1.2820     1.1210     1.8870 h4         1 5OD       0.032100
     24 H2          -4.9340     2.0960    -0.0370 hc         1 5OD       0.057200
     25 H3          -5.5910     1.7290     1.5530 hc         1 5OD       0.057200
     26 H4          -5.7500    -1.1870    -1.5820 hc         1 5OD       0.057200
     27 H5          -5.0130     0.3790    -1.8800 hc         1 5OD       0.057200
     28 H6          -3.9900    -1.8240    -0.0270 h1         1 5OD       0.049450
     29 H7          -3.2820    -1.2720    -1.5280 h1         1 5OD       0.049450
     30 H8           6.2430    -1.4390     0.6070 ha         1 5OD       0.149000
     31 H9           4.6150    -3.2880     0.8250 ha         1 5OD       0.141000
     32 H10          2.1980    -2.8300     0.6320 ha         1 5OD       0.147000
     33 H11         -7.0070     1.6390    -1.2590 hc         1 5OD       0.040367
     34 H12         -7.8990     0.1440    -0.9830 hc         1 5OD       0.040367
     35 H13         -7.8190     1.3690     0.2880 hc         1 5OD       0.040367
     36 H14          1.6700    -1.8430    -1.9570 hn         1 5OD       0.424300
     37 H15          0.0950    -2.1150    -2.5180 hn         1 5OD       0.424300
     38 H16         -3.1450     1.6140     1.4410 h1         1 5OD       0.049450
     39 H17         -3.8370     0.1120     2.0110 h1         1 5OD       0.049450
     40 H18         -6.9500    -1.4680     0.6190 hn         1 5OD       0.339800
     41 H19         -5.5930    -1.2120     1.4510 hn         1 5OD       0.339800
     42 CL1          2.8360     1.9010    -0.1820 cl         1 5OD      -0.069400
@<TRIPOS>BOND
     1     1    13 ar  
     2     1    16 ar  
     3     1    18 1   
     4     2    13 ar  
     5     2    14 ar  
     6     2    23 1   
     7     3     4 1   
     8     3    20 1   
     9     3    24 1   
    10     3    25 1   
    11     4     5 1   
    12     4    12 1   
    13     4    22 1   
    14     5     6 1   
    15     5    26 1   
    16     5    27 1   
    17     6    19 1   
    18     6    28 1   
    19     6    29 1   
    20     7     8 ar  
    21     7    18 ar  
    22     7    42 1   
    23     8     9 ar  
    24     8    21 1   
    25     9    10 ar  
    26     9    30 1   
    27    10    11 ar  
    28    10    31 1   
    29    11    18 ar  
    30    11    32 1   
    31    12    33 1   
    32    12    34 1   
    33    12    35 1   
    34    14    15 ar  
    35    14    19 1   
    36    15    16 ar  
    37    16    17 1   
    38    17    36 1   
    39    17    37 1   
    40    19    20 1   
    41    20    38 1   
    42    20    39 1   
    43    22    40 1   
    44    22    41 1   
@<TRIPOS>SUBSTRUCTURE
     1 5OD         1 TEMP              0 ****  ****    0 ROOT
