@<TRIPOS>MOLECULE
5OE
   51    55     1     0     0
SMALL
No Charge or Current Charge


@<TRIPOS>ATOM
      1 C21          7.3690     3.1410     0.5680 c3         1 5OE       0.072900
      2 N6           6.2750     2.1590     0.5830 na         1 5OE       0.130800
      3 C19          6.3230     0.8650     0.0770 cc         1 5OE      -0.120000
      4 N7           5.0650     2.4820     1.1570 nc         1 5OE      -0.543800
      5 C20          4.3580     1.3790     0.9920 cd         1 5OE       0.294900
      6 C18          5.0670     0.3630     0.3100 cd         1 5OE      -0.281500
      7 C17          4.6130    -1.0130     0.0160 ca         1 5OE       0.489500
      8 N5           5.6250    -1.9140    -0.0950 nb         1 5OE      -0.686000
      9 C16          5.3150    -3.2110    -0.3110 ca         1 5OE       0.321900
     10 C15          3.9950    -3.6740    -0.4160 ca         1 5OE      -0.123000
     11 C1           2.9400    -2.7540    -0.2940 ca         1 5OE      -0.172000
     12 C            3.2350    -1.3880    -0.0680 ca         1 5OE       0.040000
     13 N1           2.2090    -0.5070     0.0310 nb         1 5OE      -0.244000
     14 C3           0.9540    -0.9800    -0.0680 ca         1 5OE       0.386900
     15 N            0.5940    -2.2580    -0.2850 nb         1 5OE      -0.204000
     16 C2           1.5940    -3.1490    -0.3950 ca         1 5OE       0.165900
     17 N2          -0.0320    -0.0050     0.0190 nu         1 5OE      -0.921900
     18 C4          -1.4420     0.0060     0.0530 ca         1 5OE       0.266000
     19 C9          -2.1250     1.2020    -0.2900 ca         1 5OE       0.114100
     20 O           -1.3700     2.3110    -0.6530 os         1 5OE      -0.351100
     21 C10         -1.9660     3.5690    -1.0210 c3         1 5OE       0.151900
     22 C8          -3.5390     1.2460    -0.2570 ca         1 5OE      -0.179000
     23 C7          -4.2890     0.1160     0.1240 ca         1 5OE       0.045000
     24 C6          -3.6010    -1.0620     0.4830 ca         1 5OE      -0.133000
     25 C5          -2.1970    -1.1140     0.4520 ca         1 5OE      -0.074000
     26 C11         -5.7560     0.1900     0.1480 cc         1 5OE      -0.157000
     27 C13         -6.6170     1.2580    -0.1630 cc         1 5OE       0.253900
     28 N4          -7.8950     0.9680    -0.0310 nd         1 5OE      -0.525800
     29 N3          -7.8600    -0.3560     0.3880 na         1 5OE       0.134800
     30 C14         -9.1020    -1.0920     0.6600 c3         1 5OE       0.072900
     31 C12         -6.5570    -0.8570     0.5050 cd         1 5OE      -0.154000
     32 H1           7.0300     4.0600     0.0770 h1         1 5OE       0.056033
     33 H2           7.6720     3.3670     1.5970 h1         1 5OE       0.056033
     34 H3           8.2260     2.7330     0.0190 h1         1 5OE       0.056033
     35 H4           7.2050     0.4350    -0.3810 h4         1 5OE       0.166000
     36 H5           3.3520     1.3500     1.3900 h4         1 5OE       0.055100
     37 H6           6.1530    -3.9020    -0.3990 h4         1 5OE       0.019100
     38 H7           3.8040    -4.7300    -0.5900 ha         1 5OE       0.124000
     39 H8           1.3130    -4.1870    -0.5700 h4         1 5OE       0.025100
     40 H9           0.3510     0.9370    -0.0770 hn         1 5OE       0.522000
     41 H10         -2.6130     3.4520    -1.8990 h1         1 5OE       0.042367
     42 H11         -2.5610     3.9760    -0.1940 h1         1 5OE       0.042367
     43 H12         -1.1860     4.3000    -1.2690 h1         1 5OE       0.042367
     44 H13         -4.0640     2.1550    -0.5250 ha         1 5OE       0.118000
     45 H14         -4.1430    -1.9490     0.7950 ha         1 5OE       0.111000
     46 H15         -1.7070    -2.0300     0.7600 ha         1 5OE       0.131000
     47 H16         -6.3440     2.2530    -0.4880 h4         1 5OE       0.036100
     48 H17         -9.7120    -1.1300    -0.2510 h1         1 5OE       0.057033
     49 H18         -8.8660    -2.1140     0.9800 h1         1 5OE       0.057033
     50 H19         -9.6620    -0.5840     1.4540 h1         1 5OE       0.057033
     51 H20         -6.3420    -1.8710     0.8180 h4         1 5OE       0.154000
@<TRIPOS>BOND
     1     1     2 1   
     2     1    32 1   
     3     1    33 1   
     4     1    34 1   
     5     2     3 1   
     6     2     4 1   
     7     3     6 2   
     8     3    35 1   
     9     4     5 2   
    10     5     6 1   
    11     5    36 1   
    12     6     7 1   
    13     7     8 ar  
    14     7    12 ar  
    15     8     9 ar  
    16     9    10 ar  
    17     9    37 1   
    18    10    11 ar  
    19    10    38 1   
    20    11    12 ar  
    21    11    16 ar  
    22    12    13 ar  
    23    13    14 ar  
    24    14    15 ar  
    25    14    17 1   
    26    15    16 ar  
    27    16    39 1   
    28    17    18 1   
    29    17    40 1   
    30    18    19 ar  
    31    18    25 ar  
    32    19    20 1   
    33    19    22 ar  
    34    20    21 1   
    35    21    41 1   
    36    21    42 1   
    37    21    43 1   
    38    22    23 ar  
    39    22    44 1   
    40    23    24 ar  
    41    23    26 1   
    42    24    25 ar  
    43    24    45 1   
    44    25    46 1   
    45    26    27 1   
    46    26    31 2   
    47    27    28 2   
    48    27    47 1   
    49    28    29 1   
    50    29    30 1   
    51    29    31 1   
    52    30    48 1   
    53    30    49 1   
    54    30    50 1   
    55    31    51 1   
@<TRIPOS>SUBSTRUCTURE
     1 5OE         1 TEMP              0 ****  ****    0 ROOT
