@<TRIPOS>MOLECULE
5OE
   51    55     1     0     0
SMALL
abcg2


@<TRIPOS>ATOM
      1 C21          7.6330     2.7890     0.8990 c3         1 5OE       0.072900
      2 N6           6.4380     2.0040     0.7080 na         1 5OE       0.130800
      3 C19          6.3600     0.7110     0.3840 cc         1 5OE      -0.120000
      4 N7           5.2390     2.5700     0.8370 nc         1 5OE      -0.543800
      5 C20          4.3670     1.6130     0.5910 cd         1 5OE       0.294900
      6 C18          5.0130     0.3920     0.2930 cd         1 5OE      -0.281500
      7 C17          4.5050    -0.9320    -0.0430 ca         1 5OE       0.489500
      8 N5           5.4040    -1.8640    -0.2770 nb         1 5OE      -0.686000
      9 C16          5.0400    -3.1180    -0.5970 ca         1 5OE       0.321900
     10 C15          3.7350    -3.5140    -0.7050 ca         1 5OE      -0.123000
     11 C1           2.7450    -2.5490    -0.4630 ca         1 5OE      -0.172000
     12 C            3.1060    -1.2330    -0.1210 ca         1 5OE       0.040000
     13 N1           2.1790    -0.2960     0.1250 nb         1 5OE      -0.244000
     14 C3           0.9150    -0.6510     0.0310 ca         1 5OE       0.386900
     15 N            0.4600    -1.8840    -0.3060 nb         1 5OE      -0.204000
     16 C2           1.3530    -2.7960    -0.5410 ca         1 5OE       0.165900
     17 N2          -0.0050     0.3110     0.2820 nu         1 5OE      -0.921900
     18 C4          -1.3990     0.2000     0.2660 ca         1 5OE       0.266000
     19 C9          -2.1400     1.2520    -0.3000 ca         1 5OE       0.114100
     20 O           -1.4160     2.2660    -0.8090 os         1 5OE      -0.351100
     21 C10         -2.0900     3.3850    -1.3520 c3         1 5OE       0.151900
     22 C8          -3.5270     1.2030    -0.3050 ca         1 5OE      -0.179000
     23 C7          -4.2130     0.1130     0.2380 ca         1 5OE       0.045000
     24 C6          -3.4690    -0.9200     0.8020 ca         1 5OE      -0.133000
     25 C5          -2.0840    -0.8690     0.8240 ca         1 5OE      -0.074000
     26 C11         -5.6720     0.0740     0.2140 cc         1 5OE      -0.157000
     27 C13         -6.5750     1.0740    -0.2050 cc         1 5OE       0.253900
     28 N4          -7.8280     0.6820    -0.0810 nd         1 5OE      -0.525800
     29 N3          -7.7660    -0.5500     0.4120 na         1 5OE       0.134800
     30 C14         -8.9760    -1.3000     0.6490 c3         1 5OE       0.072900
     31 C12         -6.5030    -0.9610     0.6040 cd         1 5OE      -0.154000
     32 H1           7.7060     3.5620     0.1370 h1         1 5OE       0.056033
     33 H2           7.6200     3.2560     1.8820 h1         1 5OE       0.056033
     34 H3           8.4990     2.1380     0.8280 h1         1 5OE       0.056033
     35 H4           7.2390     0.1040     0.2400 h4         1 5OE       0.166000
     36 H5           3.3100     1.8140     0.6340 h4         1 5OE       0.055100
     37 H6           5.8490    -3.8160    -0.7710 h4         1 5OE       0.019100
     38 H7           3.4710    -4.5300    -0.9670 ha         1 5OE       0.124000
     39 H8           0.9970    -3.7840    -0.8160 h4         1 5OE       0.025100
     40 H9           0.3820     1.2350     0.4070 hn         1 5OE       0.522000
     41 H10         -2.7000     3.1120    -2.2170 h1         1 5OE       0.042367
     42 H11         -2.7260     3.8760    -0.6110 h1         1 5OE       0.042367
     43 H12         -1.3200     4.0810    -1.6720 h1         1 5OE       0.042367
     44 H13         -4.0890     2.0110    -0.7530 ha         1 5OE       0.118000
     45 H14         -3.9630    -1.7720     1.2500 ha         1 5OE       0.111000
     46 H15         -1.5330    -1.6740     1.2870 ha         1 5OE       0.131000
     47 H16         -6.3550     2.0610    -0.5840 h4         1 5OE       0.036100
     48 H17         -9.4740    -1.5300    -0.2910 h1         1 5OE       0.057033
     49 H18         -8.7210    -2.2290     1.1520 h1         1 5OE       0.057033
     50 H19         -9.6510    -0.7300     1.2830 h1         1 5OE       0.057033
     51 H20         -6.2840    -1.9420     0.9930 h4         1 5OE       0.154000
@<TRIPOS>BOND
     1     1     2 1   
     2     1    32 1   
     3     1    33 1   
     4     1    34 1   
     5     2     3 1   
     6     2     4 1   
     7     3     6 2   
     8     3    35 1   
     9     4     5 2   
    10     5     6 1   
    11     5    36 1   
    12     6     7 1   
    13     7     8 ar  
    14     7    12 ar  
    15     8     9 ar  
    16     9    10 ar  
    17     9    37 1   
    18    10    11 ar  
    19    10    38 1   
    20    11    12 ar  
    21    11    16 ar  
    22    12    13 ar  
    23    13    14 ar  
    24    14    15 ar  
    25    14    17 1   
    26    15    16 ar  
    27    16    39 1   
    28    17    18 1   
    29    17    40 1   
    30    18    19 ar  
    31    18    25 ar  
    32    19    20 1   
    33    19    22 ar  
    34    20    21 1   
    35    21    41 1   
    36    21    42 1   
    37    21    43 1   
    38    22    23 ar  
    39    22    44 1   
    40    23    24 ar  
    41    23    26 1   
    42    24    25 ar  
    43    24    45 1   
    44    25    46 1   
    45    26    27 1   
    46    26    31 2   
    47    27    28 2   
    48    27    47 1   
    49    28    29 1   
    50    29    30 1   
    51    29    31 1   
    52    30    48 1   
    53    30    49 1   
    54    30    50 1   
    55    31    51 1   
@<TRIPOS>SUBSTRUCTURE
     1 5OE         1 TEMP              0 ****  ****    0 ROOT
