@<TRIPOS>MOLECULE
5OF
   22    23     1     0     0
SMALL
abcg2


@<TRIPOS>ATOM
      1 C10          1.7060     0.2950    -0.0310 ca         1 5OF      -0.153600
      2 C13          2.0020    -2.4180     0.4330 ca         1 5OF      -0.108000
      3 C15          0.5890    -0.5460    -0.1220 ca         1 5OF      -0.083900
      4 O01         -1.9250    -1.2240     1.7040 o          1 5OF      -0.719500
      5 C02         -2.6560    -0.9940     0.7240 c          1 5OF       0.727000
      6 O03         -3.8980    -0.9410     0.7040 o          1 5OF      -0.719500
      7 C05         -0.6860     0.0420    -0.4840 cc         1 5OF       0.450900
      8 N06         -0.8020     1.3060    -0.7010 nd         1 5OF      -0.471300
      9 N07          0.2770     2.0920    -0.5770 ns         1 5OF      -0.235900
     10 C08          1.5500     1.7280    -0.2710 c          1 5OF       0.548600
     11 O09          2.4550     2.5520    -0.2120 o          1 5OF      -0.602000
     12 C11          2.9640    -0.2210     0.2900 ca         1 5OF      -0.071000
     13 C12          3.1110    -1.5710     0.5180 ca         1 5OF      -0.133000
     14 C14          0.7560    -1.9150     0.1250 ca         1 5OF      -0.057000
     15 H1           2.1210    -3.4780     0.6160 ha         1 5OF       0.103000
     16 H3          -1.6950    -1.7500    -1.0500 hc         1 5OF       0.042200
     17 H4          -2.5990    -0.2810    -1.3410 hc         1 5OF       0.042200
     18 H5           0.0960     3.0690    -0.7590 hn         1 5OF       0.335500
     19 H6           3.8140     0.4440     0.3570 ha         1 5OF       0.123000
     20 H7           4.0830    -1.9780     0.7650 ha         1 5OF       0.099000
     21 H8          -0.0890    -2.5850     0.0800 ha         1 5OF       0.144000
     22 C04         -1.9340    -0.7690    -0.6290 c3         1 5OF      -0.260700
@<TRIPOS>BOND
     1     1     3 ar  
     2     1    10 1   
     3     1    12 ar  
     4     2    13 ar  
     5     2    14 ar  
     6     2    15 1   
     7     3     7 1   
     8     3    14 ar  
     9     4     5 1   
    10     5     6 1   
    11     5    22 1   
    12     7     8 2   
    13     7    22 1   
    14     8     9 1   
    15     9    10 1   
    16     9    18 1   
    17    10    11 2   
    18    12    13 ar  
    19    12    19 1   
    20    13    20 1   
    21    14    21 1   
    22    16    22 1   
    23    17    22 1   
@<TRIPOS>SUBSTRUCTURE
     1 5OF         1 TEMP              0 ****  ****    0 ROOT
