@<TRIPOS>MOLECULE
5OF
   22    23     1     0     0
SMALL
No Charge or Current Charge


@<TRIPOS>ATOM
      1 C10          1.6950     0.3240    -0.0300 ca         1 5OF      -0.153600
      2 C13          2.0540    -2.4120     0.5030 ca         1 5OF      -0.108000
      3 C15          0.5810    -0.5510    -0.1280 ca         1 5OF      -0.083900
      4 O01         -2.2490    -2.0140     1.3630 o          1 5OF      -0.719500
      5 C02         -2.6210    -1.0650     0.6930 c          1 5OF       0.727000
      6 O03         -3.3960    -0.2140     1.0970 o          1 5OF      -0.719500
      7 C05         -0.7510    -0.0070    -0.5140 cc         1 5OF       0.450900
      8 N06         -0.9010     1.2970    -0.7790 nd         1 5OF      -0.471300
      9 N07          0.2040     2.1190    -0.6700 ns         1 5OF      -0.235900
     10 C08          1.4970     1.7840    -0.3200 c          1 5OF       0.548600
     11 O09          2.3900     2.6190    -0.2590 o          1 5OF      -0.602000
     12 C11          2.9660    -0.1700     0.3320 ca         1 5OF      -0.071000
     13 C12          3.1430    -1.5350     0.5980 ca         1 5OF      -0.133000
     14 C14          0.7850    -1.9270     0.1430 ca         1 5OF      -0.057000
     15 H1           2.1900    -3.4710     0.7090 ha         1 5OF       0.103000
     16 H3          -1.6760    -1.8110    -1.1100 hc         1 5OF       0.042200
     17 H4          -2.6750    -0.3100    -1.3190 hc         1 5OF       0.042200
     18 H5           0.0760     3.1080    -0.8690 hn         1 5OF       0.335500
     19 H6           3.8170     0.5030     0.4070 ha         1 5OF       0.123000
     20 H7           4.1250    -1.9130     0.8770 ha         1 5OF       0.099000
     21 H8          -0.0320    -2.6400     0.0840 ha         1 5OF       0.144000
     22 C04         -1.9810    -0.8570    -0.6690 c3         1 5OF      -0.260700
@<TRIPOS>BOND
     1     1     3 ar  
     2     1    10 1   
     3     1    12 ar  
     4     2    13 ar  
     5     2    14 ar  
     6     2    15 1   
     7     3     7 1   
     8     3    14 ar  
     9     4     5 1   
    10     5     6 1   
    11     5    22 1   
    12     7     8 2   
    13     7    22 1   
    14     8     9 1   
    15     9    10 1   
    16     9    18 1   
    17    10    11 2   
    18    12    13 ar  
    19    12    19 1   
    20    13    20 1   
    21    14    21 1   
    22    16    22 1   
    23    17    22 1   
@<TRIPOS>SUBSTRUCTURE
     1 5OF         1 TEMP              0 ****  ****    0 ROOT
