@<TRIPOS>MOLECULE
5OG
   36    37     1     0     0
SMALL
No Charge or Current Charge


@<TRIPOS>ATOM
      1 O3           4.8580    -0.6750    -2.0990 o          1 5OG      -0.569100
      2 C12          4.9950    -0.1420    -1.0060 c          1 5OG       0.604300
      3 N2           6.2250    -0.0300    -0.3720 ns         1 5OG      -0.383400
      4 O4           7.3790    -0.7690    -0.8440 oh         1 5OG      -0.425100
      5 C11          3.8590     0.4510    -0.2480 ce         1 5OG      -0.302200
      6 C10          2.5620     0.4590    -0.6780 cf         1 5OG      -0.073200
      7 C9           1.3580     1.0120    -0.0210 ca         1 5OG      -0.094800
      8 C8           0.1050     0.9000    -0.6610 ca         1 5OG       0.017000
      9 C13          1.4270     1.6530     1.2360 ca         1 5OG      -0.038000
     10 C14          0.2660     2.1690     1.8370 ca         1 5OG      -0.135000
     11 C15         -0.9770     2.0530     1.1960 ca         1 5OG      -0.009000
     12 C7          -1.0600     1.4160    -0.0570 ca         1 5OG      -0.310500
     13 S           -2.6540     1.2550    -0.8690 sy         1 5OG       1.138600
     14 O1          -3.4460     2.4640    -0.6370 o          1 5OG      -0.525500
     15 O2          -2.5040     0.6590    -2.2000 o          1 5OG      -0.525500
     16 N1          -3.4920     0.1050     0.0280 nu         1 5OG      -0.859100
     17 C1          -3.1140    -1.1760     0.4380 ca         1 5OG       0.220000
     18 C6          -2.0910    -1.9050    -0.2030 ca         1 5OG      -0.104000
     19 C5          -1.7410    -3.1910     0.2470 ca         1 5OG      -0.100500
     20 C4          -2.4140    -3.7610     1.3400 ca         1 5OG      -0.102000
     21 C3          -3.4390    -3.0450     1.9800 ca         1 5OG      -0.100500
     22 C2          -3.7870    -1.7590     1.5270 ca         1 5OG      -0.104000
     23 H1           6.2600     0.2880     0.5950 hn         1 5OG       0.332500
     24 H2           8.0850    -0.0820    -0.9030 ho         1 5OG       0.448000
     25 H3           4.1140     0.9020     0.7080 ha         1 5OG       0.177000
     26 H4           2.3620    -0.0080    -1.6470 ha         1 5OG       0.205000
     27 H5           0.0430     0.4090    -1.6310 ha         1 5OG       0.145000
     28 H6           2.3740     1.7570     1.7570 ha         1 5OG       0.116000
     29 H7           0.3310     2.6600     2.8050 ha         1 5OG       0.122000
     30 H8          -1.8690     2.4540     1.6750 ha         1 5OG       0.138000
     31 H9          -4.1550     0.6110     0.5990 hn         1 5OG       0.484000
     32 H10         -1.5650    -1.4900    -1.0560 ha         1 5OG       0.128000
     33 H11         -0.9500    -3.7450    -0.2530 ha         1 5OG       0.120500
     34 H12         -2.1440    -4.7550     1.6890 ha         1 5OG       0.120000
     35 H13         -3.9640    -3.4850     2.8250 ha         1 5OG       0.120500
     36 H14         -4.5820    -1.2150     2.0300 ha         1 5OG       0.128000
@<TRIPOS>BOND
     1     1     2 2   
     2     2     3 1   
     3     2     5 1   
     4     3     4 1   
     5     3    23 1   
     6     4    24 1   
     7     5     6 2   
     8     5    25 1   
     9     6     7 1   
    10     6    26 1   
    11     7     8 ar  
    12     7     9 ar  
    13     8    12 ar  
    14     8    27 1   
    15     9    10 ar  
    16     9    28 1   
    17    10    11 ar  
    18    10    29 1   
    19    11    12 ar  
    20    11    30 1   
    21    12    13 1   
    22    13    14 2   
    23    13    15 2   
    24    13    16 1   
    25    16    17 1   
    26    16    31 1   
    27    17    18 ar  
    28    17    22 ar  
    29    18    19 ar  
    30    18    32 1   
    31    19    20 ar  
    32    19    33 1   
    33    20    21 ar  
    34    20    34 1   
    35    21    22 ar  
    36    21    35 1   
    37    22    36 1   
@<TRIPOS>SUBSTRUCTURE
     1 5OG         1 TEMP              0 ****  ****    0 ROOT
