@<TRIPOS>MOLECULE
5OG
   36    37     1     0     0
SMALL
bcc


@<TRIPOS>ATOM
      1 O3           4.3080    -1.3810    -1.2660 o          1 5OG      -0.569100
      2 C12          4.4700    -0.6630    -0.2930 c          1 5OG       0.671300
      3 N2           5.6390    -0.5620     0.3720 ns         1 5OG      -0.450400
      4 O4           6.6460    -1.4350     0.1020 oh         1 5OG      -0.386100
      5 C11          3.4230     0.2210     0.2680 ce         1 5OG      -0.252200
      6 C10          2.2030     0.2500    -0.2720 cf         1 5OG      -0.023200
      7 C9           1.0750     1.0640     0.1740 ca         1 5OG      -0.094800
      8 C8          -0.1610     0.8720    -0.4430 ca         1 5OG      -0.001000
      9 C13          1.1750     2.0240     1.1860 ca         1 5OG      -0.056000
     10 C14          0.0730     2.7650     1.5750 ca         1 5OG      -0.153000
     11 C15         -1.1600     2.5650     0.9690 ca         1 5OG      -0.027000
     12 C7          -1.2580     1.6170    -0.0380 ca         1 5OG      -0.310500
     13 S           -2.8430     1.2750    -0.7510 sy         1 5OG       1.280200
     14 O1          -3.7000     2.4310    -0.5650 o          1 5OG      -0.596300
     15 O2          -2.6340     0.7160    -2.0740 o          1 5OG      -0.596300
     16 N1          -3.4970     0.0680     0.1920 nu         1 5OG      -0.665500
     17 C1          -2.7900    -1.1630     0.2760 ca         1 5OG       0.081600
     18 C6          -2.9100    -2.0920    -0.7510 ca         1 5OG      -0.122000
     19 C5          -2.2180    -3.2920    -0.6730 ca         1 5OG      -0.118500
     20 C4          -1.4210    -3.5720     0.4300 ca         1 5OG      -0.120000
     21 C3          -1.3130    -2.6460     1.4580 ca         1 5OG      -0.118500
     22 C2          -1.9860    -1.4360     1.3780 ca         1 5OG      -0.122000
     23 H1           5.7070    -0.1050     1.2710 hn         1 5OG       0.332500
     24 H2           7.2580    -0.9670    -0.4810 ho         1 5OG       0.409000
     25 H3           3.6810     0.8290     1.1280 ha         1 5OG       0.127000
     26 H4           2.0070    -0.3940    -1.1230 ha         1 5OG       0.155000
     27 H5          -0.2540     0.1380    -1.2330 ha         1 5OG       0.163000
     28 H6           2.1230     2.2030     1.6750 ha         1 5OG       0.134000
     29 H7           0.1700     3.5070     2.3550 ha         1 5OG       0.140000
     30 H8          -2.0180     3.1470     1.2790 ha         1 5OG       0.156000
     31 H9          -3.8040     0.4340     1.0880 hn         1 5OG       0.428800
     32 H10         -3.5510    -1.8820    -1.5960 ha         1 5OG       0.146000
     33 H11         -2.3110    -4.0150    -1.4720 ha         1 5OG       0.138500
     34 H12         -0.8900    -4.5140     0.4890 ha         1 5OG       0.138000
     35 H13         -0.6950    -2.8590     2.3210 ha         1 5OG       0.138500
     36 H14         -1.8890    -0.7040     2.1700 ha         1 5OG       0.146000
@<TRIPOS>BOND
     1     1     2 2   
     2     2     3 1   
     3     2     5 1   
     4     3     4 1   
     5     3    23 1   
     6     4    24 1   
     7     5     6 2   
     8     5    25 1   
     9     6     7 1   
    10     6    26 1   
    11     7     8 ar  
    12     7     9 ar  
    13     8    12 ar  
    14     8    27 1   
    15     9    10 ar  
    16     9    28 1   
    17    10    11 ar  
    18    10    29 1   
    19    11    12 ar  
    20    11    30 1   
    21    12    13 1   
    22    13    14 2   
    23    13    15 2   
    24    13    16 1   
    25    16    17 1   
    26    16    31 1   
    27    17    18 ar  
    28    17    22 ar  
    29    18    19 ar  
    30    18    32 1   
    31    19    20 ar  
    32    19    33 1   
    33    20    21 ar  
    34    20    34 1   
    35    21    22 ar  
    36    21    35 1   
    37    22    36 1   
@<TRIPOS>SUBSTRUCTURE
     1 5OG         1 TEMP              0 ****  ****    0 ROOT
