@<TRIPOS>MOLECULE
5OH
   24    24     1     0     0
SMALL
abcg2


@<TRIPOS>ATOM
      1 C          103.2840     9.6500    23.5620 c          1 5OH       0.720000
      2 N          104.4830     7.9620    24.9130 n8         1 5OH      -1.001200
      3 O          102.9360    10.8420    23.4490 o          1 5OH      -0.729500
      4 CA         103.6860     9.1720    24.9860 c3         1 5OH       0.007500
      5 CB         104.3860    10.2920    25.7600 c6         1 5OH       0.278500
      6 NP         105.5390    10.8050    25.0460 nu         1 5OH      -0.925400
      7 CQ         106.8020    10.7350    25.5350 c2         1 5OH       0.830100
      8 NQ         107.7230    11.5230    24.8740 nv         1 5OH      -1.020200
      9 CR         104.8090     9.9210    27.1800 c6         1 5OH      -0.155400
     10 NR         107.1840    10.0430    26.5490 n2         1 5OH      -0.776900
     11 CS         106.1950     9.2770    27.2330 c6         1 5OH       0.397500
     12 OS         106.6410     9.1580    28.5730 oh         1 5OH      -0.665000
     13 OXT        103.3070     8.7910    22.6590 o          1 5OH      -0.729500
     14 HN         104.2830     7.3570    25.6980 hn         1 5OH       0.388000
     15 HNA        104.2020     7.4670    24.0760 hn         1 5OH       0.388000
     16 HA         102.7310     9.0020    25.5150 h1         1 5OH       0.003700
     17 HP         103.6620    11.1040    25.8420 h1         1 5OH       0.055700
     18 HNP        105.3460    11.4730    24.3180 hn         1 5OH       0.500000
     19 HNQ        108.6760    11.2470    25.0520 hn         1 5OH       0.447500
     20 HNQA       107.5560    11.6680    23.8900 hn         1 5OH       0.447500
     21 HR         104.8460    10.8300    27.7880 hc         1 5OH       0.035700
     22 HRA        104.0580     9.2660    27.6310 hc         1 5OH       0.035700
     23 HS         106.1340     8.2740    26.7870 h2         1 5OH       0.044700
     24 HOS        106.0680     8.5240    29.0150 ho         1 5OH       0.421000
@<TRIPOS>BOND
     1     1     3 1   
     2     1     4 1   
     3     1    13 1   
     4     2     4 1   
     5     2    14 1   
     6     2    15 1   
     7     4     5 1   
     8     4    16 1   
     9     5     6 1   
    10     5     9 1   
    11     5    17 1   
    12     6     7 1   
    13     6    18 1   
    14     7     8 1   
    15     7    10 2   
    16     8    19 1   
    17     8    20 1   
    18     9    11 1   
    19     9    21 1   
    20     9    22 1   
    21    10    11 1   
    22    11    12 1   
    23    11    23 1   
    24    12    24 1   
@<TRIPOS>SUBSTRUCTURE
     1 5OH         1 TEMP              0 ****  ****    0 ROOT
