@<TRIPOS>MOLECULE
5OH
   24    24     1     0     0
SMALL
No Charge or Current Charge


@<TRIPOS>ATOM
      1 C          102.9720     9.7410    23.6670 c          1 5OH       0.720000
      2 N          104.6950     7.9540    24.6040 n8         1 5OH      -1.001200
      3 O          101.9110    10.3020    23.9140 o          1 5OH      -0.729500
      4 CA         103.7990     9.1580    24.8870 c3         1 5OH       0.007500
      5 CB         104.4600    10.3560    25.6820 c6         1 5OH       0.278500
      6 NP         105.7000    10.8340    25.0480 nu         1 5OH      -0.925400
      7 CQ         106.9170    10.5300    25.4830 c2         1 5OH       0.830100
      8 NQ         107.7180    11.3050    24.7840 nv         1 5OH      -1.020200
      9 CR         104.7760    10.0360    27.1630 c6         1 5OH      -0.155400
     10 NR         107.1910     9.9550    26.5710 n2         1 5OH      -0.776900
     11 CS         106.1160     9.2830    27.2830 c6         1 5OH       0.397500
     12 OS         106.5080     9.2090    28.6420 oh         1 5OH      -0.665000
     13 OXT        103.3470     9.5180    22.5220 o          1 5OH      -0.729500
     14 HN         104.9540     7.5010    25.4850 hn         1 5OH       0.388000
     15 HNA        104.1510     7.2400    24.1050 hn         1 5OH       0.388000
     16 HA         103.0260     8.7580    25.5570 h1         1 5OH       0.003700
     17 HP         103.7180    11.1690    25.6870 h1         1 5OH       0.055700
     18 HNP        105.6910    11.7300    24.5830 hn         1 5OH       0.500000
     19 HNQ        108.6590    11.2350    25.1440 hn         1 5OH       0.447500
     20 HNQA       107.6560    11.0980    23.7970 hn         1 5OH       0.447500
     21 HR         104.8370    10.9800    27.7210 hc         1 5OH       0.035700
     22 HRA        103.9600     9.4590    27.6180 hc         1 5OH       0.035700
     23 HS         106.0060     8.2640    26.8810 h2         1 5OH       0.044700
     24 HOS        105.7660     8.7680    29.1040 ho         1 5OH       0.421000
@<TRIPOS>BOND
     1     1     3 1   
     2     1     4 1   
     3     1    13 1   
     4     2     4 1   
     5     2    14 1   
     6     2    15 1   
     7     4     5 1   
     8     4    16 1   
     9     5     6 1   
    10     5     9 1   
    11     5    17 1   
    12     6     7 1   
    13     6    18 1   
    14     7     8 1   
    15     7    10 2   
    16     8    19 1   
    17     8    20 1   
    18     9    11 1   
    19     9    21 1   
    20     9    22 1   
    21    10    11 1   
    22    11    12 1   
    23    11    23 1   
    24    12    24 1   
@<TRIPOS>SUBSTRUCTURE
     1 5OH         1 TEMP              0 ****  ****    0 ROOT
