@<TRIPOS>MOLECULE
5OI
   45    47     1     0     0
SMALL
bcc


@<TRIPOS>ATOM
      1 C13         -5.8460    38.4060   -19.0280 c3         1 5OI      -0.088600
      2 C18         -6.5210    37.0420   -19.1330 c3         1 5OI      -0.059700
      3 C17         -7.7900    35.5260   -20.8160 c3         1 5OI       0.130200
      4 C16         -7.0070    36.8180   -20.5660 c3         1 5OI      -0.067400
      5 C15        -12.1060    37.3400   -19.6390 c3         1 5OI      -0.137700
      6 C11         -8.9760    35.4440   -19.8820 ca         1 5OI       0.632300
      7 C12        -11.8660    38.2220   -20.8510 c3         1 5OI      -0.076100
      8 C1         -11.1670    33.5620   -16.2060 ca         1 5OI      -0.092000
      9 C2         -10.0930    33.5990   -17.0470 ca         1 5OI      -0.171300
     10 C3         -12.2270    35.3690   -17.3980 ca         1 5OI      -0.066000
     11 C4         -13.6410    33.6540   -14.3330 cc         1 5OI       0.242900
     12 C5         -15.3130    34.8860   -14.6820 cd         1 5OI       0.480300
     13 C6         -11.1280    35.4220   -18.2730 ca         1 5OI      -0.278600
     14 C7         -12.2580    34.4520   -16.3710 ca         1 5OI      -0.122500
     15 C8         -10.0490    34.5330   -18.1050 ca         1 5OI       0.430600
     16 C9         -13.3780    34.3740   -15.4530 cd         1 5OI       0.198900
     17 C10        -11.0180    36.3450   -19.3580 ca         1 5OI       0.495600
     18 C14         -5.5730    35.9400   -18.6680 c3         1 5OI      -0.088600
     19 N19        -14.8850    33.9990   -13.8560 nc         1 5OI      -0.671000
     20 N20         -8.9740    34.5550   -18.9300 nb         1 5OI      -0.691000
     21 N21         -9.9640    36.3370   -20.1250 nb         1 5OI      -0.729000
     22 N22         -8.1620    35.4620   -22.2210 n8         1 5OI      -0.878800
     23 O23        -14.4590    35.1640   -15.6700 os         1 5OI      -0.349800
     24 H32         -5.5240    38.6100   -18.0050 hc         1 5OI       0.033533
     25 H33         -4.9630    38.4530   -19.6690 hc         1 5OI       0.033533
     26 H34         -6.5200    39.2100   -19.3310 hc         1 5OI       0.033533
     27 H43         -7.3900    37.0500   -18.4650 hc         1 5OI       0.043700
     28 H42         -7.1470    34.6680   -20.6040 h1         1 5OI       0.083700
     29 H40         -6.1440    36.8190   -21.2400 hc         1 5OI       0.054200
     30 H41         -7.6360    37.6630   -20.8660 hc         1 5OI       0.054200
     31 H39        -12.2450    37.9590   -18.7470 hc         1 5OI       0.057700
     32 H38        -13.0470    36.7940   -19.7560 hc         1 5OI       0.057700
     33 H30        -12.7090    38.8990   -20.9840 hc         1 5OI       0.041367
     34 H31        -10.9660    38.8250   -20.7410 hc         1 5OI       0.041367
     35 H29        -11.7620    37.6340   -21.7620 hc         1 5OI       0.041367
     36 H24        -11.1830    32.8380   -15.4010 ha         1 5OI       0.141000
     37 H25         -9.2630    32.9170   -16.9160 ha         1 5OI       0.157000
     38 H26        -13.0490    36.0590   -17.5380 ha         1 5OI       0.148000
     39 H27        -13.0230    32.9200   -13.8410 h4         1 5OI       0.051100
     40 H28        -16.2540    35.4150   -14.6700 h5         1 5OI       0.085100
     41 H37         -5.1850    36.1550   -17.6710 hc         1 5OI       0.033533
     42 H35         -6.0640    34.9670   -18.6240 hc         1 5OI       0.033533
     43 H36         -4.7190    35.8550   -19.3450 hc         1 5OI       0.033533
     44 H44         -8.6430    34.5910   -22.4120 hn         1 5OI       0.348800
     45 H1          -8.8260    36.2000   -22.4260 hn         1 5OI       0.348800
@<TRIPOS>BOND
     1     1     2 1   
     2     1    24 1   
     3     1    25 1   
     4     1    26 1   
     5     2     4 1   
     6     2    18 1   
     7     2    27 1   
     8     3     4 1   
     9     3     6 1   
    10     3    22 1   
    11     3    28 1   
    12     4    29 1   
    13     4    30 1   
    14     5     7 1   
    15     5    17 1   
    16     5    31 1   
    17     5    32 1   
    18     6    20 ar  
    19     6    21 ar  
    20     7    33 1   
    21     7    34 1   
    22     7    35 1   
    23     8     9 ar  
    24     8    14 ar  
    25     8    36 1   
    26     9    15 ar  
    27     9    37 1   
    28    10    13 ar  
    29    10    14 ar  
    30    10    38 1   
    31    11    16 2   
    32    11    19 1   
    33    11    39 1   
    34    12    19 2   
    35    12    23 1   
    36    12    40 1   
    37    13    15 ar  
    38    13    17 ar  
    39    14    16 1   
    40    15    20 ar  
    41    16    23 1   
    42    17    21 ar  
    43    18    41 1   
    44    18    42 1   
    45    18    43 1   
    46    22    44 1   
    47    22    45 1   
@<TRIPOS>SUBSTRUCTURE
     1 5OI         1 TEMP              0 ****  ****    0 ROOT
