@<TRIPOS>MOLECULE
5OI
   45    47     1     0     0
SMALL
No Charge or Current Charge


@<TRIPOS>ATOM
      1 C13         -5.7840    38.5370   -19.2170 c3         1 5OI      -0.088600
      2 C18         -6.4620    37.1480   -19.2340 c3         1 5OI      -0.059700
      3 C17         -7.7420    35.4560   -20.7900 c3         1 5OI       0.130200
      4 C16         -6.9320    36.7770   -20.6700 c3         1 5OI      -0.067400
      5 C15        -12.1070    37.3980   -19.5700 c3         1 5OI      -0.137700
      6 C11         -8.9800    35.4330   -19.8780 ca         1 5OI       0.106300
      7 C12        -11.8270    38.3820   -20.7320 c3         1 5OI      -0.076100
      8 C1         -11.2640    33.4690   -16.2030 ca         1 5OI      -0.074000
      9 C2         -10.1550    33.5110   -17.0630 ca         1 5OI      -0.088000
     10 C3         -12.2500    35.3470   -17.3870 ca         1 5OI      -0.048000
     11 C4         -13.7600    33.5010   -14.3980 cc         1 5OI       0.242900
     12 C5         -15.3630    34.8840   -14.6220 cd         1 5OI       0.435900
     13 C6         -11.1340    35.3920   -18.2540 ca         1 5OI      -0.148000
     14 C7         -12.3230    34.3850   -16.3550 ca         1 5OI      -0.122500
     15 C8         -10.0760    34.4650   -18.0920 ca         1 5OI       0.037000
     16 C9         -13.4870    34.3340   -15.4460 cd         1 5OI       0.154500
     17 C10        -11.0240    36.3430   -19.3020 ca         1 5OI       0.167300
     18 C14         -5.5330    36.0780   -18.6100 c3         1 5OI      -0.088600
     19 N19        -14.9710    33.8570   -13.8670 nc         1 5OI      -0.671000
     20 N20         -9.0040    34.4930   -18.9100 nb         1 5OI      -0.165000
     21 N21         -9.9420    36.3520   -20.1110 nb         1 5OI      -0.203000
     22 N22         -8.0990    35.2100   -22.2090 n8         1 5OI      -0.989200
     23 O23        -14.4900    35.2330   -15.6210 os         1 5OI      -0.261000
     24 H32         -5.5030    38.8200   -18.1960 hc         1 5OI       0.033533
     25 H33         -4.8780    38.5380   -19.8350 hc         1 5OI       0.033533
     26 H34         -6.4650    39.3050   -19.6040 hc         1 5OI       0.033533
     27 H43         -7.3500    37.2230   -18.5940 hc         1 5OI       0.043700
     28 H42         -7.0780    34.6340   -20.4820 h1         1 5OI       0.083700
     29 H40         -6.0530    36.7110   -21.3230 hc         1 5OI       0.054200
     30 H41         -7.5430    37.6000   -21.0610 hc         1 5OI       0.054200
     31 H39        -12.2630    37.9920   -18.6610 hc         1 5OI       0.057700
     32 H38        -13.0580    36.8930   -19.7770 hc         1 5OI       0.057700
     33 H30        -12.6560    39.0940   -20.8350 hc         1 5OI       0.041367
     34 H31        -10.9100    38.9550   -20.5500 hc         1 5OI       0.041367
     35 H29        -11.7230    37.8470   -21.6840 hc         1 5OI       0.041367
     36 H24        -11.2910    32.7160   -15.4180 ha         1 5OI       0.123000
     37 H25         -9.3480    32.7940   -16.9290 ha         1 5OI       0.139000
     38 H26        -13.0650    36.0550   -17.5080 ha         1 5OI       0.130000
     39 H27        -13.1820    32.6820   -13.9910 h4         1 5OI       0.051100
     40 H28        -16.2800    35.4550   -14.5270 h5         1 5OI       0.085100
     41 H37         -5.1950    36.3940   -17.6150 hc         1 5OI       0.033533
     42 H35         -6.0520    35.1210   -18.4910 hc         1 5OI       0.033533
     43 H36         -4.6470    35.9170   -19.2360 hc         1 5OI       0.033533
     44 H44         -8.6070    34.3200   -22.2750 hn         1 5OI       0.404000
     45 H1          -8.8040    35.9010   -22.4910 hn         1 5OI       0.404000
@<TRIPOS>BOND
     1     1     2 1   
     2     1    24 1   
     3     1    25 1   
     4     1    26 1   
     5     2     4 1   
     6     2    18 1   
     7     2    27 1   
     8     3     4 1   
     9     3     6 1   
    10     3    22 1   
    11     3    28 1   
    12     4    29 1   
    13     4    30 1   
    14     5     7 1   
    15     5    17 1   
    16     5    31 1   
    17     5    32 1   
    18     6    20 ar  
    19     6    21 ar  
    20     7    33 1   
    21     7    34 1   
    22     7    35 1   
    23     8     9 ar  
    24     8    14 ar  
    25     8    36 1   
    26     9    15 ar  
    27     9    37 1   
    28    10    13 ar  
    29    10    14 ar  
    30    10    38 1   
    31    11    16 2   
    32    11    19 1   
    33    11    39 1   
    34    12    19 2   
    35    12    23 1   
    36    12    40 1   
    37    13    15 ar  
    38    13    17 ar  
    39    14    16 1   
    40    15    20 ar  
    41    16    23 1   
    42    17    21 ar  
    43    18    41 1   
    44    18    42 1   
    45    18    43 1   
    46    22    44 1   
    47    22    45 1   
@<TRIPOS>SUBSTRUCTURE
     1 5OI         1 TEMP              0 ****  ****    0 ROOT
