@<TRIPOS>MOLECULE
5OJ
   41    42     1     0     0
SMALL
No Charge or Current Charge


@<TRIPOS>ATOM
      1 O4           1.3510    -0.9490    -2.1600 o          1 5OJ      -0.566100
      2 C7           1.4400     0.1790    -1.6850 c          1 5OJ       0.603100
      3 N2           2.5230     0.5240    -0.8280 n          1 5OJ      -0.245400
      4 C14          3.0160     1.9330    -0.8040 c3         1 5OJ       0.109000
      5 C15          2.4850     2.7870     0.3780 c3         1 5OJ       0.142600
      6 O3           2.9310     2.2670     1.6390 oh         1 5OJ      -0.648000
      7 C8           3.3220    -0.4890    -0.1730 ca         1 5OJ      -0.037000
      8 C13          2.6780    -1.5820     0.4480 ca         1 5OJ      -0.095500
      9 C12          3.4190    -2.6640     0.9550 ca         1 5OJ      -0.105500
     10 C11          4.8120    -2.7000     0.7930 ca         1 5OJ      -0.108000
     11 C10          5.4560    -1.6660     0.0960 ca         1 5OJ      -0.105500
     12 C9           4.7130    -0.5840    -0.4090 ca         1 5OJ      -0.095500
     13 C6           0.3040     1.1920    -1.9490 c3         1 5OJ      -0.117100
     14 C5          -0.9410     0.8260    -1.1450 ca         1 5OJ      -0.043300
     15 C4          -0.8820     0.7230     0.2570 ca         1 5OJ      -0.102000
     16 C3          -2.0280     0.3870     0.9960 ca         1 5OJ      -0.069500
     17 C16         -2.1660     0.5920    -1.7950 ca         1 5OJ      -0.102000
     18 C17         -3.3160     0.2550    -1.0590 ca         1 5OJ      -0.069500
     19 C2          -3.2630     0.1450     0.3530 ca         1 5OJ      -0.151600
     20 C1          -4.4800    -0.2150     1.1850 c          1 5OJ       0.619700
     21 O1          -4.4440    -0.2380     2.4100 o          1 5OJ      -0.570100
     22 N1          -5.6500    -0.5070     0.4900 ns         1 5OJ      -0.392400
     23 O2          -6.7910    -1.0980     1.1600 oh         1 5OJ      -0.416100
     24 H1           4.1090     1.9480    -0.7520 h1         1 5OJ       0.058700
     25 H2           2.7590     2.4270    -1.7490 h1         1 5OJ       0.058700
     26 H3           2.8460     3.8170     0.2520 h1         1 5OJ       0.021700
     27 H4           1.3890     2.8190     0.3480 h1         1 5OJ       0.021700
     28 H5           2.5840     2.8650     2.3380 ho         1 5OJ       0.445000
     29 H6           1.5970    -1.5810     0.5640 ha         1 5OJ       0.116500
     30 H7           2.9090    -3.4800     1.4630 ha         1 5OJ       0.113000
     31 H8           5.3860    -3.5390     1.1790 ha         1 5OJ       0.112000
     32 H9           6.5300    -1.7110    -0.0690 ha         1 5OJ       0.113000
     33 H10          5.2340     0.1720    -0.9900 ha         1 5OJ       0.116500
     34 H11          0.5860     2.2150    -1.6930 hc         1 5OJ       0.064700
     35 H12          0.0710     1.1590    -3.0200 hc         1 5OJ       0.064700
     36 H13          0.0540     0.9010     0.7810 ha         1 5OJ       0.116500
     37 H14         -1.9490     0.3130     2.0790 ha         1 5OJ       0.123500
     38 H15         -2.2340     0.6710    -2.8780 ha         1 5OJ       0.116500
     39 H16         -4.2410     0.0900    -1.6050 ha         1 5OJ       0.123500
     40 H17         -5.6090    -0.6370    -0.5180 hn         1 5OJ       0.339500
     41 H18         -7.5470    -0.5290     0.8800 ho         1 5OJ       0.440000
@<TRIPOS>BOND
     1     1     2 2   
     2     2     3 1   
     3     2    13 1   
     4     3     4 1   
     5     3     7 1   
     6     4     5 1   
     7     4    24 1   
     8     4    25 1   
     9     5     6 1   
    10     5    26 1   
    11     5    27 1   
    12     6    28 1   
    13     7     8 ar  
    14     7    12 ar  
    15     8     9 ar  
    16     8    29 1   
    17     9    10 ar  
    18     9    30 1   
    19    10    11 ar  
    20    10    31 1   
    21    11    12 ar  
    22    11    32 1   
    23    12    33 1   
    24    13    14 1   
    25    13    34 1   
    26    13    35 1   
    27    14    15 ar  
    28    14    17 ar  
    29    15    16 ar  
    30    15    36 1   
    31    16    19 ar  
    32    16    37 1   
    33    17    18 ar  
    34    17    38 1   
    35    18    19 ar  
    36    18    39 1   
    37    19    20 1   
    38    20    21 2   
    39    20    22 1   
    40    22    23 1   
    41    22    40 1   
    42    23    41 1   
@<TRIPOS>SUBSTRUCTURE
     1 5OJ         1 TEMP              0 ****  ****    0 ROOT
