@<TRIPOS>MOLECULE
5OJ
   41    42     1     0     0
SMALL
bcc


@<TRIPOS>ATOM
      1 O4           0.8440    -1.0240    -0.2380 o          1 5OJ      -0.566100
      2 C7           1.2050     0.1070    -0.5110 c          1 5OJ       0.670100
      3 N2           2.5150     0.4630    -0.5130 n          1 5OJ      -0.405000
      4 C14          2.9990     1.7960    -0.8520 c3         1 5OJ       0.109000
      5 C15          3.0970     2.7320     0.3370 c3         1 5OJ       0.119400
      6 O3           4.0530     2.2330     1.2380 oh         1 5OJ      -0.585800
      7 C8           3.4790    -0.5330    -0.1830 ca         1 5OJ       0.055600
      8 C13          3.6080    -0.9870     1.1230 ca         1 5OJ      -0.113500
      9 C12          4.5470    -1.9600     1.4280 ca         1 5OJ      -0.123500
     10 C11          5.3730    -2.4730     0.4340 ca         1 5OJ      -0.126000
     11 C10          5.2490    -2.0120    -0.8690 ca         1 5OJ      -0.123500
     12 C9           4.2970    -1.0490    -1.1790 ca         1 5OJ      -0.113500
     13 C6           0.1990     1.1800    -0.9040 c3         1 5OJ      -0.117100
     14 C5          -1.2010     0.7700    -0.5610 ca         1 5OJ      -0.043300
     15 C4          -1.7320     1.0700     0.6900 ca         1 5OJ      -0.120000
     16 C3          -3.0180     0.6840     1.0270 ca         1 5OJ      -0.087500
     17 C16         -1.9900     0.0760    -1.4700 ca         1 5OJ      -0.120000
     18 C17         -3.2840    -0.3010    -1.1460 ca         1 5OJ      -0.087500
     19 C2          -3.8130     0.0050     0.1060 ca         1 5OJ      -0.151600
     20 C1          -5.1850    -0.4040     0.5270 c          1 5OJ       0.686700
     21 O1          -5.4570    -0.6790     1.6840 o          1 5OJ      -0.570100
     22 N1          -6.0930    -0.4030    -0.4650 ns         1 5OJ      -0.459400
     23 O2          -7.3320    -0.9230    -0.2580 oh         1 5OJ      -0.377100
     24 H1           3.9820     1.6910    -1.3150 h1         1 5OJ       0.058700
     25 H2           2.3610     2.2480    -1.6100 h1         1 5OJ       0.058700
     26 H3           3.3670     3.7260    -0.0430 h1         1 5OJ       0.021700
     27 H4           2.1110     2.8300     0.8100 h1         1 5OJ       0.021700
     28 H5           4.0240     2.7670     2.0370 ho         1 5OJ       0.406000
     29 H6           2.9790    -0.5730     1.9000 ha         1 5OJ       0.134500
     30 H7           4.6420    -2.3130     2.4470 ha         1 5OJ       0.131000
     31 H8           6.1100    -3.2280     0.6750 ha         1 5OJ       0.130000
     32 H9           5.8870    -2.4060    -1.6490 ha         1 5OJ       0.131000
     33 H10          4.1900    -0.6990    -2.1990 ha         1 5OJ       0.134500
     34 H11          0.4340     2.1310    -0.4230 hc         1 5OJ       0.064700
     35 H12          0.2930     1.3550    -1.9800 hc         1 5OJ       0.064700
     36 H13         -1.1350     1.6140     1.4120 ha         1 5OJ       0.134500
     37 H14         -3.4100     0.9220     2.0070 ha         1 5OJ       0.141500
     38 H15         -1.5940    -0.1760    -2.4460 ha         1 5OJ       0.134500
     39 H16         -3.8600    -0.8590    -1.8740 ha         1 5OJ       0.141500
     40 H17         -5.8770    -0.1770    -1.4240 hn         1 5OJ       0.339500
     41 H18         -7.9000    -0.1830    -0.0060 ho         1 5OJ       0.401000
@<TRIPOS>BOND
     1     1     2 2   
     2     2     3 1   
     3     2    13 1   
     4     3     4 1   
     5     3     7 1   
     6     4     5 1   
     7     4    24 1   
     8     4    25 1   
     9     5     6 1   
    10     5    26 1   
    11     5    27 1   
    12     6    28 1   
    13     7     8 ar  
    14     7    12 ar  
    15     8     9 ar  
    16     8    29 1   
    17     9    10 ar  
    18     9    30 1   
    19    10    11 ar  
    20    10    31 1   
    21    11    12 ar  
    22    11    32 1   
    23    12    33 1   
    24    13    14 1   
    25    13    34 1   
    26    13    35 1   
    27    14    15 ar  
    28    14    17 ar  
    29    15    16 ar  
    30    15    36 1   
    31    16    19 ar  
    32    16    37 1   
    33    17    18 ar  
    34    17    38 1   
    35    18    19 ar  
    36    18    39 1   
    37    19    20 1   
    38    20    21 2   
    39    20    22 1   
    40    22    23 1   
    41    22    40 1   
    42    23    41 1   
@<TRIPOS>SUBSTRUCTURE
     1 5OJ         1 TEMP              0 ****  ****    0 ROOT
