@<TRIPOS>MOLECULE
5OK
   38    39     1     0     0
SMALL
No Charge or Current Charge


@<TRIPOS>ATOM
      1 O01         -4.6080     0.3650     2.3280 o          1 5OK      -0.527000
      2 S02         -4.1540     0.6820     0.9730 sy         1 5OK       1.139600
      3 N03         -2.5200     0.9980     1.2120 nu         1 5OK      -0.862100
      4 C04         -1.4740     1.0990     0.2920 ca         1 5OK       0.226000
      5 C05         -0.1560     0.9280     0.7530 ca         1 5OK      -0.108000
      6 C06          0.9330     1.0160    -0.1330 ca         1 5OK       0.028000
      7 C07          2.2710     0.8350     0.3510 cg         1 5OK      -0.081000
      8 C08          3.4130     0.6790     0.7510 ch         1 5OK      -0.167300
      9 C09          4.7710     0.4860     1.1500 cf         1 5OK       0.016300
     10 C10          5.7650     0.1700     0.2730 ce         1 5OK      -0.289200
     11 C11          7.1850    -0.0350     0.6560 c          1 5OK       0.605300
     12 N12          8.0250    -0.3490    -0.4040 ns         1 5OK      -0.384400
     13 O13          9.3740    -0.8250    -0.1720 oh         1 5OK      -0.422100
     14 O14          7.5830     0.0720     1.8080 o          1 5OK      -0.571100
     15 C15          0.7070     1.2800    -1.4950 ca         1 5OK      -0.081000
     16 C16         -0.6050     1.4590    -1.9660 ca         1 5OK      -0.106000
     17 C17         -1.6900     1.3710    -1.0760 ca         1 5OK      -0.061000
     18 C18         -4.2010    -0.8020    -0.0420 ca         1 5OK      -0.311500
     19 C19         -4.6000    -0.7350    -1.3940 ca         1 5OK      -0.014500
     20 C20         -4.6210    -1.9010    -2.1780 ca         1 5OK      -0.129500
     21 C21         -4.2470    -3.1360    -1.6200 ca         1 5OK      -0.053000
     22 C22         -3.8510    -3.2040    -0.2730 ca         1 5OK      -0.129500
     23 C23         -3.8270    -2.0420     0.5170 ca         1 5OK      -0.014500
     24 O24         -4.6550     1.8400     0.2270 o          1 5OK      -0.527000
     25 H1          -2.3020     0.6930     2.1510 hn         1 5OK       0.486000
     26 H2           0.0240     0.7240     1.8050 ha         1 5OK       0.124000
     27 H3           5.0000     0.6040     2.2130 ha         1 5OK       0.214000
     28 H4           5.5240     0.0570    -0.7820 ha         1 5OK       0.186000
     29 H5           7.6210    -0.5690    -1.3130 hn         1 5OK       0.336500
     30 H6           9.9250    -0.2560    -0.7610 ho         1 5OK       0.447000
     31 H7           1.5440     1.3490    -2.1870 ha         1 5OK       0.124000
     32 H8          -0.7810     1.6680    -3.0190 ha         1 5OK       0.126000
     33 H9          -2.6930     1.5230    -1.4590 ha         1 5OK       0.147000
     34 H10         -4.8950     0.2130    -1.8420 ha         1 5OK       0.137000
     35 H11         -4.9290    -1.8480    -3.2200 ha         1 5OK       0.121500
     36 H12         -4.2640    -4.0370    -2.2290 ha         1 5OK       0.119000
     37 H13         -3.5610    -4.1590     0.1590 ha         1 5OK       0.121500
     38 H14         -3.5150    -2.1080     1.5580 ha         1 5OK       0.137000
@<TRIPOS>BOND
     1     1     2 2   
     2     2     3 1   
     3     2    18 1   
     4     2    24 2   
     5     3     4 1   
     6     3    25 1   
     7     4     5 ar  
     8     4    17 ar  
     9     5     6 ar  
    10     5    26 1   
    11     6     7 1   
    12     6    15 ar  
    13     7     8 3   
    14     8     9 1   
    15     9    10 2   
    16     9    27 1   
    17    10    11 1   
    18    10    28 1   
    19    11    12 1   
    20    11    14 2   
    21    12    13 1   
    22    12    29 1   
    23    13    30 1   
    24    15    16 ar  
    25    15    31 1   
    26    16    17 ar  
    27    16    32 1   
    28    17    33 1   
    29    18    19 ar  
    30    18    23 ar  
    31    19    20 ar  
    32    19    34 1   
    33    20    21 ar  
    34    20    35 1   
    35    21    22 ar  
    36    21    36 1   
    37    22    23 ar  
    38    22    37 1   
    39    23    38 1   
@<TRIPOS>SUBSTRUCTURE
     1 5OK         1 TEMP              0 ****  ****    0 ROOT
