@<TRIPOS>MOLECULE
5OK
   38    39     1     0     0
SMALL
abcg2


@<TRIPOS>ATOM
      1 O01         -5.3080     0.2610     1.2690 o          1 5OK      -0.527000
      2 S02         -4.2860     0.4590     0.2580 sy         1 5OK       1.139600
      3 N03         -3.1690     1.4910     0.9480 nu         1 5OK      -0.862100
      4 C04         -2.0160     1.8170     0.1870 ca         1 5OK       0.226000
      5 C05         -0.8160     1.1640     0.4230 ca         1 5OK      -0.108000
      6 C06          0.3180     1.4920    -0.3240 ca         1 5OK       0.028000
      7 C07          1.5440     0.8170    -0.0850 cg         1 5OK      -0.081000
      8 C08          2.5860     0.2350     0.1100 ch         1 5OK      -0.167300
      9 C09          3.7800    -0.4730     0.3670 cf         1 5OK       0.016300
     10 C10          4.9140    -0.2960    -0.3200 ce         1 5OK      -0.289200
     11 C11          6.1170    -1.0930     0.0120 c          1 5OK       0.605300
     12 N12          7.1750    -0.7740    -0.7590 ns         1 5OK      -0.384400
     13 O13          8.3060    -1.5260    -0.7010 oh         1 5OK      -0.422100
     14 O14          6.1540    -1.9270     0.9010 o          1 5OK      -0.571100
     15 C15          0.2260     2.4680    -1.3220 ca         1 5OK      -0.081000
     16 C16         -0.9810     3.1080    -1.5520 ca         1 5OK      -0.106000
     17 C17         -2.1030     2.7930    -0.8000 ca         1 5OK      -0.061000
     18 C18         -3.4220    -1.0630    -0.0020 ca         1 5OK      -0.311500
     19 C19         -2.6830    -1.2300    -1.1670 ca         1 5OK      -0.014500
     20 C20         -1.9470    -2.3940    -1.3310 ca         1 5OK      -0.129500
     21 C21         -1.9560    -3.3710    -0.3450 ca         1 5OK      -0.053000
     22 C22         -2.7010    -3.1910     0.8130 ca         1 5OK      -0.129500
     23 C23         -3.4380    -2.0310     0.9950 ca         1 5OK      -0.014500
     24 O24         -4.6270     1.0160    -1.0370 o          1 5OK      -0.527000
     25 H1          -2.9740     1.2280     1.9100 hn         1 5OK       0.486000
     26 H2          -0.7550     0.3940     1.1830 ha         1 5OK       0.124000
     27 H3           3.7460    -1.2010     1.1720 ha         1 5OK       0.214000
     28 H4           4.9650     0.4260    -1.1260 ha         1 5OK       0.186000
     29 H5           7.0920    -0.1960    -1.5830 hn         1 5OK       0.336500
     30 H6           8.9120    -1.0580    -0.1120 ho         1 5OK       0.447000
     31 H7           1.0990     2.7200    -1.9080 ha         1 5OK       0.124000
     32 H8          -1.0460     3.8670    -2.3190 ha         1 5OK       0.126000
     33 H9          -3.0370     3.3120    -0.9650 ha         1 5OK       0.147000
     34 H10         -2.6750    -0.4740    -1.9390 ha         1 5OK       0.137000
     35 H11         -1.3670    -2.5360    -2.2340 ha         1 5OK       0.121500
     36 H12         -1.3820    -4.2780    -0.4800 ha         1 5OK       0.119000
     37 H13         -2.7120    -3.9550     1.5780 ha         1 5OK       0.121500
     38 H14         -4.0180    -1.8940     1.8980 ha         1 5OK       0.137000
@<TRIPOS>BOND
     1     1     2 2   
     2     2     3 1   
     3     2    18 1   
     4     2    24 2   
     5     3     4 1   
     6     3    25 1   
     7     4     5 ar  
     8     4    17 ar  
     9     5     6 ar  
    10     5    26 1   
    11     6     7 1   
    12     6    15 ar  
    13     7     8 3   
    14     8     9 1   
    15     9    10 2   
    16     9    27 1   
    17    10    11 1   
    18    10    28 1   
    19    11    12 1   
    20    11    14 2   
    21    12    13 1   
    22    12    29 1   
    23    13    30 1   
    24    15    16 ar  
    25    15    31 1   
    26    16    17 ar  
    27    16    32 1   
    28    17    33 1   
    29    18    19 ar  
    30    18    23 ar  
    31    19    20 ar  
    32    19    34 1   
    33    20    21 ar  
    34    20    35 1   
    35    21    22 ar  
    36    21    36 1   
    37    22    23 ar  
    38    22    37 1   
    39    23    38 1   
@<TRIPOS>SUBSTRUCTURE
     1 5OK         1 TEMP              0 ****  ****    0 ROOT
