@<TRIPOS>MOLECULE
5OL
   31    30     1     0     0
SMALL
bcc


@<TRIPOS>ATOM
      1 CA           6.1560    16.4560    -1.7930 c3         1 5OL       0.015500
      2 N            6.9010    17.0500    -2.9020 n8         1 5OL      -0.891800
      3 C            6.2540    17.2530    -0.4710 c          1 5OL       0.899600
      4 O            5.2060    17.4020     0.1900 o          1 5OL      -0.841800
      5 C03          6.6590    15.0260    -1.5840 c3         1 5OL      -0.045400
      6 C04          5.8770    14.2170    -0.5560 c3         1 5OL      -0.071400
      7 C05          6.3130    12.7590    -0.5080 c3         1 5OL      -0.081400
      8 C06          5.5160    11.9480     0.5040 c3         1 5OL       0.173800
      9 N07          5.9610    10.5620     0.5010 n7         1 5OL      -0.811200
     10 C08          5.3840     9.6750     1.4610 c3         1 5OL       0.584800
     11 O02          5.7980    10.1440     2.7160 oh         1 5OL      -0.616300
     12 O01          3.9750     9.7180     1.3590 oh         1 5OL      -0.616300
     13 C11          5.8890     8.2560     1.2160 c3         1 5OL      -0.150100
     14 OXT          7.3940    17.6660    -0.1650 o          1 5OL      -0.841800
     15 H1           5.1050    16.4010    -2.0950 h1         1 5OL       0.036700
     16 H2           6.4940    17.9530    -3.1220 hn         1 5OL       0.325300
     17 H3           7.8310    17.2670    -2.5590 hn         1 5OL       0.325300
     18 H5           6.6220    14.5090    -2.5480 hc         1 5OL       0.022700
     19 H6           7.7160    15.0600    -1.2950 hc         1 5OL       0.022700
     20 H7           5.9890    14.6560     0.4390 hc         1 5OL       0.050700
     21 H8           4.8080    14.2680    -0.7920 hc         1 5OL       0.050700
     22 H9           6.1970    12.3150    -1.5030 hc         1 5OL       0.031200
     23 H10          7.3780    12.6950    -0.2640 hc         1 5OL       0.031200
     24 H11          5.6740    12.3690     1.4990 h1         1 5OL       0.047700
     25 H12          4.4460    12.0590     0.2820 h1         1 5OL       0.047700
     26 H13          5.8520    10.1720    -0.4270 hn         1 5OL       0.368800
     27 H15          5.4920     9.5360     3.3980 ho         1 5OL       0.397500
     28 H16          3.5900     9.0070     1.8840 ho         1 5OL       0.397500
     29 H17          5.4730     7.5640     1.9530 hc         1 5OL       0.046033
     30 H18          5.5980     7.8980     0.2280 hc         1 5OL       0.046033
     31 H19          6.9740     8.2150     1.2900 hc         1 5OL       0.046033
@<TRIPOS>BOND
     1     1     2 1   
     2     1     3 1   
     3     1     5 1   
     4     1    15 1   
     5     2    16 1   
     6     2    17 1   
     7     3     4 1   
     8     3    14 1   
     9     5     6 1   
    10     5    18 1   
    11     5    19 1   
    12     6     7 1   
    13     6    20 1   
    14     6    21 1   
    15     7     8 1   
    16     7    22 1   
    17     7    23 1   
    18     8     9 1   
    19     8    24 1   
    20     8    25 1   
    21     9    10 1   
    22     9    26 1   
    23    10    11 1   
    24    10    12 1   
    25    10    13 1   
    26    11    27 1   
    27    12    28 1   
    28    13    29 1   
    29    13    30 1   
    30    13    31 1   
@<TRIPOS>SUBSTRUCTURE
     1 5OL         1 TEMP              0 ****  ****    0 ROOT
