@<TRIPOS>MOLECULE
5OM
   34    34     1     0     0
SMALL
No Charge or Current Charge


@<TRIPOS>ATOM
      1 O01         -3.7800     1.4180     0.3180 oh         1 5OM      -0.704000
      2 C02         -3.6490     0.0250     0.1880 c3         1 5OM       0.429000
      3 C03         -2.2830    -0.3230    -0.4620 c3         1 5OM      -0.138400
      4 C04         -1.0150     0.2160     0.2580 c3         1 5OM      -0.070400
      5 C05          0.2940    -0.2210    -0.4360 c3         1 5OM      -0.078400
      6 C06          1.5620     0.3090     0.2710 c3         1 5OM      -0.072400
      7 C07          2.8730    -0.1330    -0.4250 c3         1 5OM      -0.050400
      8 C08          4.1730     0.3280     0.2920 c3         1 5OM       0.014500
      9 N09          4.2880     1.8330     0.2890 n8         1 5OM      -1.000200
     10 C27          5.4210    -0.4660    -0.2780 c          1 5OM       0.691000
     11 O28          5.8790    -0.1320    -1.3640 o          1 5OM      -0.736000
     12 O02         -3.6890    -0.4550     1.5020 oh         1 5OM      -0.704000
     13 C30         -4.8350    -0.6010    -0.5690 cx         1 5OM       0.024300
     14 C31         -6.1200     0.1480    -0.8210 cx         1 5OM       0.090600
     15 O32         -6.0320    -0.8490     0.2230 op         1 5OM      -0.451000
     16 OXT          5.9520    -1.3030     0.4390 o          1 5OM      -0.736000
     17 H1          -2.9190     1.7110     0.6780 ho         1 5OM       0.524000
     18 H2          -2.2030    -1.4150    -0.5310 hc         1 5OM       0.048700
     19 H3          -2.2860     0.0480    -1.4940 hc         1 5OM       0.048700
     20 H4          -1.0430     1.3120     0.2930 hc         1 5OM       0.046700
     21 H5          -1.0020    -0.1410     1.2950 hc         1 5OM       0.046700
     22 H6           0.3340    -1.3170    -0.4710 hc         1 5OM       0.030200
     23 H7           0.2880     0.1330    -1.4740 hc         1 5OM       0.030200
     24 H8           1.5170     1.4040     0.3080 hc         1 5OM       0.037700
     25 H9           1.5690    -0.0460     1.3090 hc         1 5OM       0.037700
     26 H10          2.8800    -1.2290    -0.4780 hc         1 5OM       0.036700
     27 H11          2.8790     0.2280    -1.4610 hc         1 5OM       0.036700
     28 H12          4.0800     0.0260     1.3450 h1         1 5OM       0.036700
     29 H13          5.1290     2.1040     0.8140 hn         1 5OM       0.380000
     30 H14          4.5060     2.1350    -0.6680 hn         1 5OM       0.380000
     31 H16         -4.6440    -0.6740     1.6040 ho         1 5OM       0.524000
     32 H17         -4.5660    -1.4040    -1.2550 h1         1 5OM       0.084700
     33 H18         -6.2290     1.1750    -0.4740 h1         1 5OM       0.080200
     34 H19         -6.7300    -0.1300    -1.6810 h1         1 5OM       0.080200
@<TRIPOS>BOND
     1     1     2 1   
     2     1    17 1   
     3     2     3 1   
     4     2    12 1   
     5     2    13 1   
     6     3     4 1   
     7     3    18 1   
     8     3    19 1   
     9     4     5 1   
    10     4    20 1   
    11     4    21 1   
    12     5     6 1   
    13     5    22 1   
    14     5    23 1   
    15     6     7 1   
    16     6    24 1   
    17     6    25 1   
    18     7     8 1   
    19     7    26 1   
    20     7    27 1   
    21     8     9 1   
    22     8    10 1   
    23     8    28 1   
    24     9    29 1   
    25     9    30 1   
    26    10    11 1   
    27    10    16 1   
    28    12    31 1   
    29    13    14 1   
    30    13    15 1   
    31    13    32 1   
    32    14    15 1   
    33    14    33 1   
    34    14    34 1   
@<TRIPOS>SUBSTRUCTURE
     1 5OM         1 TEMP              0 ****  ****    0 ROOT
