@<TRIPOS>MOLECULE
5OM
   34    34     1     0     0
SMALL
bcc


@<TRIPOS>ATOM
      1 O01         -3.6960     1.7640    -0.0360 oh         1 5OM      -0.581800
      2 C02         -3.5940     0.3700     0.0120 c3         1 5OM       0.382600
      3 C03         -2.2510    -0.1380    -0.5200 c3         1 5OM      -0.138400
      4 C04         -1.0210     0.4250     0.1820 c3         1 5OM      -0.070400
      5 C05          0.2670    -0.1800    -0.3620 c3         1 5OM      -0.078400
      6 C06          1.5220     0.3700     0.3020 c3         1 5OM      -0.072400
      7 C07          2.7960    -0.2670    -0.2360 c3         1 5OM      -0.050400
      8 C08          4.0810     0.2420     0.4220 c3         1 5OM       0.014500
      9 N09          4.2090     1.6790     0.2280 n8         1 5OM      -0.889800
     10 C27          5.2810    -0.6040    -0.0750 c          1 5OM       0.901600
     11 O28          6.1250    -0.0440    -0.8020 o          1 5OM      -0.841300
     12 O02         -3.7540     0.0760     1.3670 oh         1 5OM      -0.581800
     13 C30         -4.7300    -0.2210    -0.8160 cx         1 5OM       0.001100
     14 C31         -6.0570    -0.4390    -0.2600 cx         1 5OM       0.067400
     15 O32         -5.1580    -1.5250    -0.4670 op         1 5OM      -0.404600
     16 OXT          5.2920    -1.8010     0.2850 o          1 5OM      -0.841300
     17 H1          -3.2550     2.0920    -0.8260 ho         1 5OM       0.425000
     18 H2          -2.2440    -1.2310    -0.4440 hc         1 5OM       0.048700
     19 H3          -2.1900     0.0780    -1.5930 hc         1 5OM       0.048700
     20 H4          -0.9830     1.5130     0.0660 hc         1 5OM       0.046700
     21 H5          -1.0870     0.2330     1.2570 hc         1 5OM       0.046700
     22 H6           0.2350    -1.2690    -0.2360 hc         1 5OM       0.030200
     23 H7           0.3230    -0.0050    -1.4420 hc         1 5OM       0.030200
     24 H8           1.5670     1.4530     0.1670 hc         1 5OM       0.037700
     25 H9           1.4640     0.2010     1.3840 hc         1 5OM       0.037700
     26 H10          2.7430    -1.3500    -0.1020 hc         1 5OM       0.036700
     27 H11          2.8560    -0.0980    -1.3190 hc         1 5OM       0.036700
     28 H12          3.9830     0.0650     1.5010 h1         1 5OM       0.036700
     29 H13          5.0160     2.0050     0.7450 hn         1 5OM       0.324800
     30 H14          4.4550     1.8390    -0.7420 hn         1 5OM       0.324800
     31 H16         -3.7710    -0.8820     1.4780 ho         1 5OM       0.425000
     32 H17         -4.6420    -0.0410    -1.8880 h1         1 5OM       0.084700
     33 H18         -6.2650    -0.1870     0.7750 h1         1 5OM       0.080200
     34 H19         -6.9190    -0.4110    -0.9210 h1         1 5OM       0.080200
@<TRIPOS>BOND
     1     1     2 1   
     2     1    17 1   
     3     2     3 1   
     4     2    12 1   
     5     2    13 1   
     6     3     4 1   
     7     3    18 1   
     8     3    19 1   
     9     4     5 1   
    10     4    20 1   
    11     4    21 1   
    12     5     6 1   
    13     5    22 1   
    14     5    23 1   
    15     6     7 1   
    16     6    24 1   
    17     6    25 1   
    18     7     8 1   
    19     7    26 1   
    20     7    27 1   
    21     8     9 1   
    22     8    10 1   
    23     8    28 1   
    24     9    29 1   
    25     9    30 1   
    26    10    11 1   
    27    10    16 1   
    28    12    31 1   
    29    13    14 1   
    30    13    15 1   
    31    13    32 1   
    32    14    15 1   
    33    14    33 1   
    34    14    34 1   
@<TRIPOS>SUBSTRUCTURE
     1 5OM         1 TEMP              0 ****  ****    0 ROOT
