@<TRIPOS>MOLECULE
5ON
   37    38     1     0     0
SMALL
abcg2


@<TRIPOS>ATOM
      1 O01         -7.7150    -1.4000     0.5890 o          1 5ON      -0.730500
      2 C02         -6.4890    -1.5990     0.7200 c          1 5ON       0.697200
      3 O03         -5.9460    -2.5780     1.2710 o          1 5ON      -0.730500
      4 C04         -5.5940    -0.5270     0.1420 ce         1 5ON      -0.230200
      5 C05         -4.2620    -0.5680     0.2160 cf         1 5ON      -0.225200
      6 C06         -3.3210     0.4270    -0.3050 ca         1 5ON       0.021200
      7 C07         -1.9720     0.2860     0.0090 ca         1 5ON      -0.151000
      8 C08         -1.0220     1.2050    -0.4400 ca         1 5ON       0.144100
      9 O09          0.2510     0.9700    -0.0590 os         1 5ON      -0.329100
     10 C10          1.2580     1.8950    -0.4500 c3         1 5ON       0.218900
     11 C11          2.5450     1.4450     0.1730 ca         1 5ON      -0.102300
     12 C12          2.8770     1.8450     1.4640 ca         1 5ON      -0.119000
     13 C13          4.0580     1.4020     2.0420 ca         1 5ON      -0.128000
     14 C14          4.9060     0.5580     1.3380 ca         1 5ON      -0.104000
     15 C15          4.5930     0.1430     0.0460 ca         1 5ON       0.003700
     16 C16          5.5010    -0.7720    -0.7120 c3         1 5ON      -0.191100
     17 C17          5.2110    -2.2810    -0.5000 c          1 5ON       0.724000
     18 O18          5.9470    -3.0550    -1.1420 o          1 5ON      -0.724500
     19 O19          4.2910    -2.5910     0.2750 o          1 5ON      -0.724500
     20 C20          3.4040     0.5980    -0.5170 ca         1 5ON      -0.083000
     21 C21         -1.4240     2.2770    -1.2290 ca         1 5ON      -0.235000
     22 C22         -2.7730     2.4130    -1.5490 ca         1 5ON      -0.090000
     23 C23         -3.7160     1.5110    -1.0990 ca         1 5ON      -0.160000
     24 H2          -6.0940     0.3090    -0.3410 ha         1 5ON       0.139000
     25 H3          -3.8110    -1.4180     0.7200 ha         1 5ON       0.195000
     26 H4          -1.6470    -0.5500     0.6170 ha         1 5ON       0.135000
     27 H5           1.3470     1.9230    -1.5410 h1         1 5ON       0.023200
     28 H6           1.0000     2.9030    -0.1100 h1         1 5ON       0.023200
     29 H7           2.2210     2.5120     2.0110 ha         1 5ON       0.092000
     30 H8           4.3210     1.7200     3.0430 ha         1 5ON       0.086000
     31 H9           5.8300     0.2250     1.7960 ha         1 5ON       0.101000
     32 H10          5.4390    -0.5630    -1.7840 hc         1 5ON       0.026700
     33 H11          6.5420    -0.5850    -0.4310 hc         1 5ON       0.026700
     34 H13          3.1480     0.2920    -1.5270 ha         1 5ON       0.110000
     35 H14         -0.7190     3.0060    -1.6040 ha         1 5ON       0.097000
     36 H15         -3.0810     3.2480    -2.1650 ha         1 5ON       0.084000
     37 H16         -4.7540     1.6450    -1.3720 ha         1 5ON       0.110000
@<TRIPOS>BOND
     1     1     2 1   
     2     2     3 1   
     3     2     4 1   
     4     4     5 2   
     5     4    24 1   
     6     5     6 1   
     7     5    25 1   
     8     6     7 ar  
     9     6    23 ar  
    10     7     8 ar  
    11     7    26 1   
    12     8     9 1   
    13     8    21 ar  
    14     9    10 1   
    15    10    11 1   
    16    10    27 1   
    17    10    28 1   
    18    11    12 ar  
    19    11    20 ar  
    20    12    13 ar  
    21    12    29 1   
    22    13    14 ar  
    23    13    30 1   
    24    14    15 ar  
    25    14    31 1   
    26    15    16 1   
    27    15    20 ar  
    28    16    17 1   
    29    16    32 1   
    30    16    33 1   
    31    17    18 1   
    32    17    19 1   
    33    20    34 1   
    34    21    22 ar  
    35    21    35 1   
    36    22    23 ar  
    37    22    36 1   
    38    23    37 1   
@<TRIPOS>SUBSTRUCTURE
     1 5ON         1 TEMP              0 ****  ****    0 ROOT
