@<TRIPOS>MOLECULE
5ON
   37    38     1     0     0
SMALL
No Charge or Current Charge


@<TRIPOS>ATOM
      1 O01         -7.7840    -1.6210     0.2500 o          1 5ON      -0.730500
      2 C02         -6.6010    -1.6940     0.5410 c          1 5ON       0.697200
      3 O03         -6.1360    -2.5720     1.2510 o          1 5ON      -0.730500
      4 C04         -5.6860    -0.6460    -0.0100 ce         1 5ON      -0.230200
      5 C05         -4.3360    -0.5610     0.2050 cf         1 5ON      -0.225200
      6 C06         -3.3620     0.4310    -0.2940 ca         1 5ON       0.021200
      7 C07         -2.0060     0.3110     0.0660 ca         1 5ON      -0.151000
      8 C08         -1.0520     1.2360    -0.3890 ca         1 5ON       0.144100
      9 O09          0.2580     1.0570     0.0030 os         1 5ON      -0.329100
     10 C10          1.3070     1.9520    -0.4030 c3         1 5ON       0.218900
     11 C11          2.6190     1.4720     0.2040 ca         1 5ON      -0.102300
     12 C12          3.0220     1.9270     1.4740 ca         1 5ON      -0.119000
     13 C13          4.2340     1.4860     2.0310 ca         1 5ON      -0.128000
     14 C14          5.0490     0.5890     1.3210 ca         1 5ON      -0.104000
     15 C15          4.6590     0.1250     0.0500 ca         1 5ON       0.003700
     16 C16          5.5470    -0.8460    -0.7230 c3         1 5ON      -0.191100
     17 C17          5.1560    -2.2900    -0.3740 c          1 5ON       0.724000
     18 O18          4.2600    -2.8150    -1.0190 o          1 5ON      -0.724500
     19 O19          5.6790    -2.8080     0.6020 o          1 5ON      -0.724500
     20 C20          3.4410     0.5710    -0.5020 ca         1 5ON      -0.083000
     21 C21         -1.4560     2.3030    -1.2190 ca         1 5ON      -0.235000
     22 C22         -2.8060     2.4310    -1.5830 ca         1 5ON      -0.090000
     23 C23         -3.7530     1.5020    -1.1240 ca         1 5ON      -0.160000
     24 H2          -6.1780     0.0980    -0.6300 ha         1 5ON       0.139000
     25 H3          -3.8900    -1.3340     0.8360 ha         1 5ON       0.195000
     26 H4          -1.6820    -0.5070     0.7040 ha         1 5ON       0.135000
     27 H5           1.3950     1.9700    -1.4970 h1         1 5ON       0.023200
     28 H6           1.0970     2.9730    -0.0590 h1         1 5ON       0.023200
     29 H7           2.3950     2.6210     2.0300 ha         1 5ON       0.092000
     30 H8           4.5410     1.8390     3.0120 ha         1 5ON       0.086000
     31 H9           5.9850     0.2520     1.7600 ha         1 5ON       0.101000
     32 H10          5.3780    -0.6560    -1.7900 hc         1 5ON       0.026700
     33 H11          6.5810    -0.6500    -0.4160 hc         1 5ON       0.026700
     34 H13          3.1310     0.2140    -1.4810 ha         1 5ON       0.110000
     35 H14         -0.7450     3.0360    -1.5880 ha         1 5ON       0.097000
     36 H15         -3.1200     3.2530    -2.2230 ha         1 5ON       0.084000
     37 H16         -4.7900     1.6240    -1.4200 ha         1 5ON       0.110000
@<TRIPOS>BOND
     1     1     2 1   
     2     2     3 1   
     3     2     4 1   
     4     4     5 2   
     5     4    24 1   
     6     5     6 1   
     7     5    25 1   
     8     6     7 ar  
     9     6    23 ar  
    10     7     8 ar  
    11     7    26 1   
    12     8     9 1   
    13     8    21 ar  
    14     9    10 1   
    15    10    11 1   
    16    10    27 1   
    17    10    28 1   
    18    11    12 ar  
    19    11    20 ar  
    20    12    13 ar  
    21    12    29 1   
    22    13    14 ar  
    23    13    30 1   
    24    14    15 ar  
    25    14    31 1   
    26    15    16 1   
    27    15    20 ar  
    28    16    17 1   
    29    16    32 1   
    30    16    33 1   
    31    17    18 1   
    32    17    19 1   
    33    20    34 1   
    34    21    22 ar  
    35    21    35 1   
    36    22    23 ar  
    37    22    36 1   
    38    23    37 1   
@<TRIPOS>SUBSTRUCTURE
     1 5ON         1 TEMP              0 ****  ****    0 ROOT
