@<TRIPOS>MOLECULE
5OO
   18    18     1     0     0
SMALL
abcg2


@<TRIPOS>ATOM
      1 O01         -4.7750    -1.5330    -0.0210 o          1 5OO      -0.716500
      2 C02         -4.0130    -0.5450     0.0030 c          1 5OO       0.694200
      3 C03         -2.5340    -0.8700    -0.0150 ce         1 5OO      -0.199200
      4 C04         -1.5930     0.0770     0.0020 cf         1 5OO      -0.250200
      5 C05         -0.1450    -0.1340    -0.0090 ca         1 5OO       0.026200
      6 C06          0.7610     0.9320    -0.0320 ca         1 5OO       0.108000
      7 CL1          0.2030     2.5740    -0.0520 cl         1 5OO      -0.206000
      8 C08          2.1360     0.7440    -0.0410 ca         1 5OO      -0.102000
      9 C09          2.6340    -0.5450    -0.0270 ca         1 5OO       0.092000
     10 CL2          4.3450    -0.7910    -0.0380 cl         1 5OO      -0.235000
     11 C11          1.7790    -1.6370    -0.0040 ca         1 5OO      -0.103000
     12 C12          0.4160    -1.4180     0.0050 ca         1 5OO      -0.116000
     13 O13         -4.3440     0.6560     0.0380 o          1 5OO      -0.716500
     14 H2          -2.2760    -1.9240    -0.0460 ha         1 5OO       0.143000
     15 H3          -1.9360     1.1040     0.0280 ha         1 5OO       0.210000
     16 H4           2.8040     1.5940    -0.0590 ha         1 5OO       0.127000
     17 H5           2.1690    -2.6460     0.0080 ha         1 5OO       0.117000
     18 H6          -0.2380    -2.2790     0.0260 ha         1 5OO       0.127000
@<TRIPOS>BOND
     1     1     2 1   
     2     2     3 1   
     3     2    13 1   
     4     3     4 2   
     5     3    14 1   
     6     4     5 1   
     7     4    15 1   
     8     5     6 ar  
     9     5    12 ar  
    10     6     7 1   
    11     6     8 ar  
    12     8     9 ar  
    13     8    16 1   
    14     9    10 1   
    15     9    11 ar  
    16    11    12 ar  
    17    11    17 1   
    18    12    18 1   
@<TRIPOS>SUBSTRUCTURE
     1 5OO         1 TEMP              0 ****  ****    0 ROOT
