@<TRIPOS>MOLECULE
5OO
   18    18     1     0     0
SMALL
No Charge or Current Charge


@<TRIPOS>ATOM
      1 O01         -4.8390    -1.5140     0.0150 o          1 5OO      -0.716500
      2 C02         -4.0710    -0.5650     0.0050 c          1 5OO       0.694200
      3 C03         -2.6030    -0.8620     0.0010 ce         1 5OO      -0.199200
      4 C04         -1.5930     0.0670    -0.0100 cf         1 5OO      -0.250200
      5 C05         -0.1200    -0.1310    -0.0150 ca         1 5OO       0.026200
      6 C06          0.7800     0.9700    -0.0260 ca         1 5OO       0.108000
      7 Cl1          0.2190     2.6460    -0.0340 cl         1 5OO      -0.206000
      8 C08          2.1700     0.7560    -0.0310 ca         1 5OO      -0.102000
      9 C09          2.6840    -0.5480    -0.0250 ca         1 5OO       0.092000
     10 Cl2          4.4230    -0.8070    -0.0310 cl         1 5OO      -0.235000
     11 C11          1.8110    -1.6440    -0.0140 ca         1 5OO      -0.103000
     12 C12          0.4200    -1.4370    -0.0090 ca         1 5OO      -0.116000
     13 O13         -4.4400     0.5990    -0.0000 o          1 5OO      -0.716500
     14 H2          -2.3650    -1.9210     0.0060 ha         1 5OO       0.143000
     15 H3          -1.9130     1.1100    -0.0150 ha         1 5OO       0.210000
     16 H4           2.8480     1.6040    -0.0390 ha         1 5OO       0.127000
     17 H5           2.2110    -2.6550    -0.0090 ha         1 5OO       0.117000
     18 H6          -0.2290    -2.3070    -0.0010 ha         1 5OO       0.127000
@<TRIPOS>BOND
     1     1     2 1   
     2     2     3 1   
     3     2    13 1   
     4     3     4 2   
     5     3    14 1   
     6     4     5 1   
     7     4    15 1   
     8     5     6 ar  
     9     5    12 ar  
    10     6     7 1   
    11     6     8 ar  
    12     8     9 ar  
    13     8    16 1   
    14     9    10 1   
    15     9    11 ar  
    16    11    12 ar  
    17    11    17 1   
    18    12    18 1   
@<TRIPOS>SUBSTRUCTURE
     1 5OO         1 TEMP              0 ****  ****    0 ROOT
