@<TRIPOS>MOLECULE
5OP
   54    54     1     0     0
SMALL
abcg2


@<TRIPOS>ATOM
      1 C1          -1.2220     8.2990     0.5140 c3         1 5OP      -0.086100
      2 C2          -0.5180     7.1560    -0.2030 c3         1 5OP      -0.077400
      3 C3          -1.0130     5.7860     0.2430 c3         1 5OP      -0.074400
      4 C4          -0.3090     4.6340    -0.4640 c3         1 5OP      -0.068400
      5 C5          -0.8570     3.2850    -0.0320 c3         1 5OP      -0.172400
      6 C6          -0.2080     2.0860    -0.6730 c          1 5OP       0.574300
      7 C7          -0.8720     0.7930    -0.4090 ce         1 5OP      -0.323200
      8 C8          -0.4480    -0.3500    -0.9500 c2         1 5OP      -0.102200
      9 C9          -1.1090    -1.6670    -0.7440 c5         1 5OP      -0.031500
     10 C10         -0.2970    -2.6130     0.1610 c5         1 5OP       0.173300
     11 O1           1.0270    -2.6300    -0.3200 oh         1 5OP      -0.648000
     12 C11         -0.9890    -3.9520    -0.0520 c5         1 5OP      -0.236400
     13 C12         -1.3980    -3.9290    -1.5060 c          1 5OP       0.581100
     14 O2          -1.7320    -4.8850    -2.1600 o          1 5OP      -0.515100
     15 C13         -1.3430    -2.4960    -2.0200 c5         1 5OP      -0.158700
     16 C14         -2.5770    -2.1270    -2.8350 c3         1 5OP      -0.015200
     17 C15         -2.5010    -0.8380    -3.6010 c2         1 5OP      -0.271200
     18 C16         -1.4050    -0.1920    -3.9840 c2         1 5OP      -0.175200
     19 C17         -1.3890     1.1010    -4.7360 c3         1 5OP      -0.051200
     20 C18         -0.7110     0.9900    -6.1010 c3         1 5OP      -0.036400
     21 C19         -0.5080     2.3390    -6.7750 c3         1 5OP      -0.208400
     22 C20         -1.7920     3.0770    -7.1960 c          1 5OP       0.713000
     23 O3          -1.6990     4.3160    -7.3320 o          1 5OP      -0.744500
     24 O4           0.7880     2.1790    -1.3650 o          1 5OP      -0.519100
     25 O5          -2.8120     2.3900    -7.4060 o          1 5OP      -0.744500
     26 H11         -0.8580     9.2700     0.1760 hc         1 5OP       0.027367
     27 H12         -1.0640     8.2440     1.5930 hc         1 5OP       0.027367
     28 H13A        -2.2990     8.2710     0.3390 hc         1 5OP       0.027367
     29 H21          0.5610     7.2240    -0.0340 hc         1 5OP       0.043200
     30 H22         -0.6610     7.2550    -1.2840 hc         1 5OP       0.043200
     31 H31         -2.0920     5.7170     0.0680 hc         1 5OP       0.030700
     32 H32         -0.8770     5.6870     1.3260 hc         1 5OP       0.030700
     33 H41         -0.4250     4.7460    -1.5460 hc         1 5OP       0.057700
     34 H42          0.7640     4.6860    -0.2630 hc         1 5OP       0.057700
     35 H51         -0.7640     3.1580     1.0550 hc         1 5OP       0.053700
     36 H52         -1.9350     3.2280    -0.2220 hc         1 5OP       0.053700
     37 H7          -1.7550     0.8080     0.2210 ha         1 5OP       0.171000
     38 H8           0.4350    -0.3330    -1.5810 ha         1 5OP       0.206000
     39 H9          -2.0760    -1.5080    -0.2510 hc         1 5OP       0.056700
     40 H10         -0.3420    -2.2860     1.2050 h1         1 5OP       0.042700
     41 HO1          1.5260    -3.2840     0.1800 ho         1 5OP       0.439000
     42 H111        -1.9050    -3.9960     0.5460 hc         1 5OP       0.072700
     43 H112        -0.3890    -4.8260     0.2080 hc         1 5OP       0.072700
     44 H13         -0.4480    -2.4510    -2.6550 hc         1 5OP       0.098700
     45 H141        -3.4380    -2.0790    -2.1610 hc         1 5OP       0.045700
     46 H142        -2.8010    -2.9410    -3.5330 hc         1 5OP       0.045700
     47 H15         -3.4660    -0.4110    -3.8680 ha         1 5OP       0.179000
     48 H16         -0.4250    -0.5980    -3.7430 ha         1 5OP       0.148000
     49 H171        -0.8470     1.8430    -4.1370 hc         1 5OP       0.057700
     50 H172        -2.4070     1.4760    -4.8610 hc         1 5OP       0.057700
     51 H181         0.2610     0.5010    -5.9780 hc         1 5OP       0.017700
     52 H182        -1.3040     0.3380    -6.7460 hc         1 5OP       0.017700
     53 H191         0.0960     2.2010    -7.6800 hc         1 5OP       0.018700
     54 H192         0.0860     2.9900    -6.1260 hc         1 5OP       0.018700
@<TRIPOS>BOND
     1     1     2 1   
     2     1    26 1   
     3     1    27 1   
     4     1    28 1   
     5     2     3 1   
     6     2    29 1   
     7     2    30 1   
     8     3     4 1   
     9     3    31 1   
    10     3    32 1   
    11     4     5 1   
    12     4    33 1   
    13     4    34 1   
    14     5     6 1   
    15     5    35 1   
    16     5    36 1   
    17     6     7 1   
    18     6    24 2   
    19     7     8 2   
    20     7    37 1   
    21     8     9 1   
    22     8    38 1   
    23     9    10 1   
    24     9    15 1   
    25     9    39 1   
    26    10    11 1   
    27    10    12 1   
    28    10    40 1   
    29    11    41 1   
    30    12    13 1   
    31    12    42 1   
    32    12    43 1   
    33    13    14 2   
    34    13    15 1   
    35    15    16 1   
    36    15    44 1   
    37    16    17 1   
    38    16    45 1   
    39    16    46 1   
    40    17    18 2   
    41    17    47 1   
    42    18    19 1   
    43    18    48 1   
    44    19    20 1   
    45    19    49 1   
    46    19    50 1   
    47    20    21 1   
    48    20    51 1   
    49    20    52 1   
    50    21    22 1   
    51    21    53 1   
    52    21    54 1   
    53    22    23 1   
    54    22    25 1   
@<TRIPOS>SUBSTRUCTURE
     1 5OP         1 TEMP              0 ****  ****    0 ROOT
