@<TRIPOS>MOLECULE
5OP
   54    54     1     0     0
SMALL
No Charge or Current Charge


@<TRIPOS>ATOM
      1 C1           0.2090     6.7730    -2.8940 c3         1 5OP      -0.086100
      2 C2           0.6280     5.4590    -2.2080 c3         1 5OP      -0.077400
      3 C3          -0.4330     4.9290    -1.2190 c3         1 5OP      -0.074400
      4 C4          -0.0210     3.6020    -0.5430 c3         1 5OP      -0.068400
      5 C5          -1.1010     3.0530     0.4180 c3         1 5OP      -0.172400
      6 C6          -0.6900     1.6880     0.9840 c          1 5OP       0.574300
      7 C7          -1.1480     0.4810     0.2370 ce         1 5OP      -0.323200
      8 C8          -0.6700    -0.7690     0.4600 c2         1 5OP      -0.102200
      9 C9          -1.2300    -1.8730    -0.4490 c5         1 5OP      -0.031500
     10 C10         -1.0710    -3.3040     0.2090 c5         1 5OP       0.173300
     11 O1           0.0830    -3.4430     1.0360 oh         1 5OP      -0.648000
     12 C11         -0.9230    -4.1920    -1.0420 c5         1 5OP      -0.236400
     13 C12          0.1080    -3.4030    -1.8400 c          1 5OP       0.581100
     14 O2           1.2400    -3.7610    -2.1400 o          1 5OP      -0.515100
     15 C13         -0.3960    -1.9550    -1.7850 c5         1 5OP      -0.158700
     16 C14         -1.1910    -1.6300    -3.0790 c3         1 5OP      -0.015200
     17 C15         -1.7260    -0.2160    -3.1430 c2         1 5OP      -0.271200
     18 C16         -1.1200     0.8150    -3.7520 c2         1 5OP      -0.175200
     19 C17         -1.6750     2.2210    -3.8470 c3         1 5OP      -0.051200
     20 C18         -1.9680     2.6380    -5.3050 c3         1 5OP      -0.036400
     21 C19         -2.4800     4.0920    -5.4710 c3         1 5OP      -0.208400
     22 C20         -3.9000     4.2600    -4.8960 c          1 5OP       0.713000
     23 O3          -4.0200     4.6350    -3.7400 o          1 5OP      -0.744500
     24 O4           0.0300     1.6010     1.9700 o          1 5OP      -0.519100
     25 O5          -4.8470     3.9950    -5.6210 o          1 5OP      -0.744500
     26 H11          0.9890     7.1070    -3.5880 hc         1 5OP       0.027367
     27 H12          0.0490     7.5640    -2.1520 hc         1 5OP       0.027367
     28 H13A        -0.7190     6.6360    -3.4610 hc         1 5OP       0.027367
     29 H21          1.5740     5.6200    -1.6760 hc         1 5OP       0.043200
     30 H22          0.8200     4.7020    -2.9780 hc         1 5OP       0.043200
     31 H31         -1.3800     4.7830    -1.7530 hc         1 5OP       0.030700
     32 H32         -0.6150     5.6850    -0.4460 hc         1 5OP       0.030700
     33 H41          0.1910     2.8510    -1.3140 hc         1 5OP       0.057700
     34 H42          0.9140     3.7540     0.0130 hc         1 5OP       0.057700
     35 H51         -1.2420     3.7640     1.2400 hc         1 5OP       0.053700
     36 H52         -2.0280     2.9430    -0.1580 hc         1 5OP       0.053700
     37 H7          -1.8650     0.6710    -0.5580 ha         1 5OP       0.171000
     38 H8           0.0760    -0.9600     1.2350 ha         1 5OP       0.206000
     39 H9          -2.2920    -1.6970    -0.6620 hc         1 5OP       0.056700
     40 H10         -1.9700    -3.5680     0.7850 h1         1 5OP       0.042700
     41 HO1          0.0200    -4.3240     1.4670 ho         1 5OP       0.439000
     42 H111        -1.8830    -4.1890    -1.5710 hc         1 5OP       0.072700
     43 H112        -0.5880    -5.2140    -0.8350 hc         1 5OP       0.072700
     44 H13          0.4810    -1.2990    -1.7790 hc         1 5OP       0.098700
     45 H141        -2.0250    -2.3340    -3.1980 hc         1 5OP       0.045700
     46 H142        -0.5380    -1.8050    -3.9440 hc         1 5OP       0.045700
     47 H15         -2.7040    -0.0840    -2.6760 ha         1 5OP       0.179000
     48 H16         -0.1490     0.6800    -4.2330 ha         1 5OP       0.148000
     49 H171        -0.9550     2.9260    -3.4180 hc         1 5OP       0.057700
     50 H172        -2.5910     2.3070    -3.2510 hc         1 5OP       0.057700
     51 H181        -1.0450     2.5280    -5.8890 hc         1 5OP       0.017700
     52 H182        -2.6970     1.9430    -5.7410 hc         1 5OP       0.017700
     53 H191        -2.4960     4.2600    -6.5550 hc         1 5OP       0.018700
     54 H192        -1.7640     4.7340    -4.9420 hc         1 5OP       0.018700
@<TRIPOS>BOND
     1     1     2 1   
     2     1    26 1   
     3     1    27 1   
     4     1    28 1   
     5     2     3 1   
     6     2    29 1   
     7     2    30 1   
     8     3     4 1   
     9     3    31 1   
    10     3    32 1   
    11     4     5 1   
    12     4    33 1   
    13     4    34 1   
    14     5     6 1   
    15     5    35 1   
    16     5    36 1   
    17     6     7 1   
    18     6    24 2   
    19     7     8 2   
    20     7    37 1   
    21     8     9 1   
    22     8    38 1   
    23     9    10 1   
    24     9    15 1   
    25     9    39 1   
    26    10    11 1   
    27    10    12 1   
    28    10    40 1   
    29    11    41 1   
    30    12    13 1   
    31    12    42 1   
    32    12    43 1   
    33    13    14 2   
    34    13    15 1   
    35    15    16 1   
    36    15    44 1   
    37    16    17 1   
    38    16    45 1   
    39    16    46 1   
    40    17    18 2   
    41    17    47 1   
    42    18    19 1   
    43    18    48 1   
    44    19    20 1   
    45    19    49 1   
    46    19    50 1   
    47    20    21 1   
    48    20    51 1   
    49    20    52 1   
    50    21    22 1   
    51    21    53 1   
    52    21    54 1   
    53    22    23 1   
    54    22    25 1   
@<TRIPOS>SUBSTRUCTURE
     1 5OP         1 TEMP              0 ****  ****    0 ROOT
