@<TRIPOS>MOLECULE
5OQ
   47    50     1     0     0
SMALL
No Charge or Current Charge


@<TRIPOS>ATOM
      1 C1           4.1250     3.2060    -0.6650 ca         1 5OQ      -0.132000
      2 C2           2.7690     3.5500    -0.6840 ca         1 5OQ      -0.066000
      3 C3           1.7980     2.5620    -0.4540 ca         1 5OQ      -0.149000
      4 C4           2.1750     1.2250    -0.1890 ca         1 5OQ       0.053000
      5 C5           3.5580     0.8760    -0.1200 ca         1 5OQ      -0.001000
      6 C10          1.1200     0.2960    -0.0640 ca         1 5OQ      -0.242000
      7 C11         -0.2060     0.7350    -0.1290 ca         1 5OQ       0.617900
      8 C12          0.4320     2.8980    -0.5090 ca         1 5OQ       0.404900
      9 C13         -2.6420    -0.0960     0.0940 ca         1 5OQ       0.240000
     10 C14         -3.2860     1.0240     0.6630 ca         1 5OQ      -0.042000
     11 C6           4.0630    -0.4600     0.2620 cc         1 5OQ      -0.157000
     12 C16         -5.4660    -0.0290     0.3670 ca         1 5OQ       0.160100
     13 C15         -4.6860     1.0620     0.7960 ca         1 5OQ      -0.217000
     14 C20         -7.5830     1.0570     1.0220 c3         1 5OQ       0.149900
     15 O1          -6.8410    -0.0470     0.4730 os         1 5OQ      -0.343100
     16 C17         -4.8410    -1.1570    -0.1810 ca         1 5OQ      -0.221000
     17 C18         -3.4340    -1.2030    -0.3160 ca         1 5OQ       0.138100
     18 O           -2.7920    -2.3160    -0.8440 os         1 5OQ      -0.351100
     19 C19         -3.5070    -3.4830    -1.2900 c3         1 5OQ       0.150900
     20 N3          -1.2390    -0.1740    -0.0380 nu         1 5OQ      -0.939900
     21 N2          -0.5600     2.0000    -0.3460 nb         1 5OQ      -0.720000
     22 C            4.5130     1.8870    -0.3880 ca         1 5OQ      -0.083000
     23 C8           3.4980    -1.5160     1.0050 cc         1 5OQ       0.254900
     24 N1           4.2510    -2.5960     1.0610 nd         1 5OQ      -0.528800
     25 N            5.3520    -2.2330     0.3000 na         1 5OQ       0.131800
     26 C9           6.4600    -3.1730     0.0840 c3         1 5OQ       0.073900
     27 C7           5.2540    -0.9340    -0.2100 cd         1 5OQ      -0.161000
     28 H1           4.8800     3.9670    -0.8490 ha         1 5OQ       0.114000
     29 H2           2.4750     4.5770    -0.8920 ha         1 5OQ       0.112000
     30 H3           1.2990    -0.7620     0.0430 ha         1 5OQ       0.129000
     31 H4           0.1190     3.9230    -0.7060 h4         1 5OQ       0.015100
     32 H5          -2.7050     1.8670     1.0230 ha         1 5OQ       0.132000
     33 H6          -5.1420     1.9440     1.2370 ha         1 5OQ       0.120000
     34 H7          -7.2880     1.2470     2.0610 h1         1 5OQ       0.040033
     35 H8          -7.4170     1.9690     0.4350 h1         1 5OQ       0.040033
     36 H9          -8.6580     0.8360     1.0090 h1         1 5OQ       0.040033
     37 H10         -5.4660    -1.9870    -0.4930 ha         1 5OQ       0.130000
     38 H11         -2.8060    -4.2370    -1.6690 h1         1 5OQ       0.042033
     39 H12         -4.0740    -3.9320    -0.4640 h1         1 5OQ       0.042033
     40 H13         -4.2030    -3.2290    -2.1000 h1         1 5OQ       0.042033
     41 H14         -0.9240    -1.1220    -0.2310 hn         1 5OQ       0.505000
     42 H15          5.5760     1.6680    -0.3390 ha         1 5OQ       0.110000
     43 H16          2.5630    -1.5230     1.5470 h4         1 5OQ       0.042100
     44 H17          6.1010    -4.0370    -0.4880 h1         1 5OQ       0.056033
     45 H18          7.2640    -2.6770    -0.4740 h1         1 5OQ       0.056033
     46 H19          6.8480    -3.5120     1.0520 h1         1 5OQ       0.056033
     47 H20          6.0070    -0.4950    -0.8540 h4         1 5OQ       0.155000
@<TRIPOS>BOND
     1     1     2 ar  
     2     1    22 ar  
     3     1    28 1   
     4     2     3 ar  
     5     2    29 1   
     6     3     4 ar  
     7     3     8 ar  
     8     4     5 ar  
     9     4     6 ar  
    10     5    11 1   
    11     5    22 ar  
    12     6     7 ar  
    13     6    30 1   
    14     7    20 1   
    15     7    21 ar  
    16     8    21 ar  
    17     8    31 1   
    18     9    10 ar  
    19     9    17 ar  
    20     9    20 1   
    21    10    13 ar  
    22    10    32 1   
    23    11    23 1   
    24    11    27 2   
    25    12    13 ar  
    26    12    15 1   
    27    12    16 ar  
    28    13    33 1   
    29    14    15 1   
    30    14    34 1   
    31    14    35 1   
    32    14    36 1   
    33    16    17 ar  
    34    16    37 1   
    35    17    18 1   
    36    18    19 1   
    37    19    38 1   
    38    19    39 1   
    39    19    40 1   
    40    20    41 1   
    41    22    42 1   
    42    23    24 2   
    43    23    43 1   
    44    24    25 1   
    45    25    26 1   
    46    25    27 1   
    47    26    44 1   
    48    26    45 1   
    49    26    46 1   
    50    27    47 1   
@<TRIPOS>SUBSTRUCTURE
     1 5OQ         1 TEMP              0 ****  ****    0 ROOT
