@<TRIPOS>MOLECULE
5OQ
   47    50     1     0     0
SMALL
bcc


@<TRIPOS>ATOM
      1 C1           3.9170     3.2470    -0.7840 ca         1 5OQ      -0.150000
      2 C2           2.5790     3.5130    -0.7960 ca         1 5OQ      -0.084000
      3 C3           1.6600     2.4930    -0.4690 ca         1 5OQ      -0.214300
      4 C4           2.1060     1.1900    -0.1220 ca         1 5OQ       0.053000
      5 C5           3.5150     0.9380    -0.0940 ca         1 5OQ      -0.001000
      6 C10          1.1290     0.2230     0.1540 ca         1 5OQ      -0.325300
      7 C11         -0.2140     0.5660     0.1000 ca         1 5OQ       0.683200
      8 C12          0.2690     2.7130    -0.4900 ca         1 5OQ       0.470200
      9 C13         -2.5580    -0.2050     0.3370 ca         1 5OQ       0.101600
     10 C14         -3.2080     0.8650     0.9260 ca         1 5OQ      -0.060000
     11 C6           4.0560    -0.3770     0.2610 cc         1 5OQ      -0.222300
     12 C16         -5.3540     0.0150     0.2690 ca         1 5OQ       0.160100
     13 C15         -4.5930     0.9980     0.8880 ca         1 5OQ      -0.235000
     14 C20         -7.3960     1.1140     0.7620 c3         1 5OQ       0.126700
     15 O1          -6.6990     0.0330     0.1770 os         1 5OQ      -0.319900
     16 C17         -4.7230    -1.0880    -0.3100 ca         1 5OQ      -0.239000
     17 C18         -3.3420    -1.1960    -0.2890 ca         1 5OQ       0.138100
     18 O           -2.6600    -2.2210    -0.8320 os         1 5OQ      -0.327900
     19 C19         -3.3800    -3.2860    -1.4190 c3         1 5OQ       0.127700
     20 N3          -1.1700    -0.3740     0.3730 nu         1 5OQ      -0.746300
     21 N2          -0.6300     1.8080    -0.2180 nb         1 5OQ      -0.720000
     22 C            4.3720     1.9600    -0.4250 ca         1 5OQ      -0.101000
     23 C8           3.7650    -1.2080     1.3610 cc         1 5OQ       0.320200
     24 N1           4.5130    -2.2950     1.3610 nd         1 5OQ      -0.528800
     25 N            5.2860    -2.1920     0.2840 na         1 5OQ       0.110400
     26 C9           6.2000    -3.2550    -0.0590 c3         1 5OQ       0.044600
     27 C7           5.0510    -1.0650    -0.4060 cd         1 5OQ      -0.128300
     28 H1           4.6370     4.0150    -1.0330 ha         1 5OQ       0.132000
     29 H2           2.2070     4.4960    -1.0590 ha         1 5OQ       0.130000
     30 H3           1.4110    -0.7920     0.3980 ha         1 5OQ       0.147000
     31 H4          -0.1000     3.7000    -0.7550 h4         1 5OQ       0.015100
     32 H5          -2.6290     1.6260     1.4280 ha         1 5OQ       0.150000
     33 H6          -5.0450     1.8610     1.3570 ha         1 5OQ       0.138000
     34 H7          -7.2370     1.1670     1.8420 h1         1 5OQ       0.040033
     35 H8          -7.1150     2.0720     0.3170 h1         1 5OQ       0.040033
     36 H9          -8.4530     0.9400     0.5730 h1         1 5OQ       0.040033
     37 H10         -5.3350    -1.8430    -0.7870 ha         1 5OQ       0.148000
     38 H11         -2.6410    -4.0050    -1.7620 h1         1 5OQ       0.042033
     39 H12         -4.0430    -3.7750    -0.7010 h1         1 5OQ       0.042033
     40 H13         -3.9720    -2.9540    -2.2760 h1         1 5OQ       0.042033
     41 H14         -0.8370    -1.3200     0.4600 hn         1 5OQ       0.449800
     42 H15          5.4400     1.7790    -0.3930 ha         1 5OQ       0.128000
     43 H16          3.0580    -1.0370     2.1590 h4         1 5OQ       0.042100
     44 H17          5.6600    -4.1240    -0.4310 h1         1 5OQ       0.056033
     45 H18          6.8790    -2.9030    -0.8300 h1         1 5OQ       0.056033
     46 H19          6.7780    -3.5400     0.8170 h1         1 5OQ       0.056033
     47 H20          5.5810    -0.8310    -1.3160 h4         1 5OQ       0.173000
@<TRIPOS>BOND
     1     1     2 ar  
     2     1    22 ar  
     3     1    28 1   
     4     2     3 ar  
     5     2    29 1   
     6     3     4 ar  
     7     3     8 ar  
     8     4     5 ar  
     9     4     6 ar  
    10     5    11 1   
    11     5    22 ar  
    12     6     7 ar  
    13     6    30 1   
    14     7    20 1   
    15     7    21 ar  
    16     8    21 ar  
    17     8    31 1   
    18     9    10 ar  
    19     9    17 ar  
    20     9    20 1   
    21    10    13 ar  
    22    10    32 1   
    23    11    23 1   
    24    11    27 2   
    25    12    13 ar  
    26    12    15 1   
    27    12    16 ar  
    28    13    33 1   
    29    14    15 1   
    30    14    34 1   
    31    14    35 1   
    32    14    36 1   
    33    16    17 ar  
    34    16    37 1   
    35    17    18 1   
    36    18    19 1   
    37    19    38 1   
    38    19    39 1   
    39    19    40 1   
    40    20    41 1   
    41    22    42 1   
    42    23    24 2   
    43    23    43 1   
    44    24    25 1   
    45    25    26 1   
    46    25    27 1   
    47    26    44 1   
    48    26    45 1   
    49    26    46 1   
    50    27    47 1   
@<TRIPOS>SUBSTRUCTURE
     1 5OQ         1 TEMP              0 ****  ****    0 ROOT
