@<TRIPOS>MOLECULE
5OR
   27    29     1     0     0
SMALL
bcc


@<TRIPOS>ATOM
      1 O01         -5.8460     1.1100     0.1420 oh         1 5OR      -0.493100
      2 C02         -4.5040     1.0500     0.0640 ca         1 5OR       0.149100
      3 C03         -3.8340     0.0510    -0.6370 ca         1 5OR      -0.202000
      4 C04         -2.4490     0.0400    -0.6780 ca         1 5OR      -0.059000
      5 C05         -1.6990     1.0140    -0.0220 ca         1 5OR      -0.069800
      6 C06         -0.2350     1.0370    -0.0540 cc         1 5OR       0.178400
      7 N07          0.4360     2.2050    -0.1410 nc         1 5OR      -0.284600
      8 C08          1.7220     1.8960    -0.1230 cd         1 5OR      -0.041300
      9 C09          2.8580     2.7220    -0.1900 cd         1 5OR      -0.053000
     10 C10          4.1000     2.1650    -0.1500 cc         1 5OR      -0.192000
     11 C11          4.2490     0.7570    -0.0430 cc         1 5OR       0.111100
     12 O12          5.4600     0.1700     0.0020 oh         1 5OR      -0.485100
     13 C13          3.1480    -0.0440     0.0190 cd         1 5OR      -0.136300
     14 N14          1.9080     0.5330    -0.0220 na         1 5OR       0.080700
     15 C15          0.6550    -0.0220     0.0250 cd         1 5OR      -0.085300
     16 I16          0.3570    -2.0360     0.3490 i          1 5OR      -0.076800
     17 C17         -2.3860     2.0210     0.6590 ca         1 5OR      -0.059000
     18 C18         -3.7680     2.0430     0.7090 ca         1 5OR      -0.202000
     19 H1          -6.2460     0.3660    -0.3230 ho         1 5OR       0.426000
     20 H2          -4.3900    -0.7180    -1.1600 ha         1 5OR       0.140000
     21 H3          -1.9580    -0.7300    -1.2580 ha         1 5OR       0.142000
     22 H4           2.7200     3.7910    -0.2690 ha         1 5OR       0.165000
     23 H5           4.9790     2.7970    -0.2000 ha         1 5OR       0.144000
     24 H6           6.1580     0.8300    -0.0680 ho         1 5OR       0.435000
     25 H7           3.2070    -1.1190     0.0950 h4         1 5OR       0.188000
     26 H8          -1.8290     2.7990     1.1660 ha         1 5OR       0.142000
     27 H9          -4.2820     2.8280     1.2490 ha         1 5OR       0.140000
@<TRIPOS>BOND
     1     1     2 1   
     2     1    19 1   
     3     2     3 ar  
     4     2    18 ar  
     5     3     4 ar  
     6     3    20 1   
     7     4     5 ar  
     8     4    21 1   
     9     5     6 1   
    10     5    17 ar  
    11     6     7 1   
    12     6    15 2   
    13     7     8 2   
    14     8     9 1   
    15     8    14 1   
    16     9    10 2   
    17     9    22 1   
    18    10    11 1   
    19    10    23 1   
    20    11    12 1   
    21    11    13 2   
    22    12    24 1   
    23    13    14 1   
    24    13    25 1   
    25    14    15 1   
    26    15    16 1   
    27    17    18 ar  
    28    17    26 1   
    29    18    27 1   
@<TRIPOS>SUBSTRUCTURE
     1 5OR         1 TEMP              0 ****  ****    0 ROOT
