@<TRIPOS>MOLECULE
5OR
   27    29     1     0     0
SMALL
No Charge or Current Charge


@<TRIPOS>ATOM
      1 O01         -5.8500     0.9840     0.1400 oh         1 5OR      -0.532100
      2 C02         -4.4900     1.0080     0.0890 ca         1 5OR       0.149100
      3 C03         -3.7910     0.0510    -0.6630 ca         1 5OR      -0.184000
      4 C04         -2.3860     0.0840    -0.7120 ca         1 5OR      -0.041000
      5 C05         -1.6670     1.0610     0.0080 ca         1 5OR      -0.069800
      6 C06         -0.2060     1.1380    -0.0740 cc         1 5OR       0.178400
      7 N07          0.4930     2.3210    -0.1910 nc         1 5OR      -0.284600
      8 C08          1.7620     1.9540    -0.1720 cd         1 5OR      -0.092000
      9 C09          2.9150     2.7860    -0.2600 cd         1 5OR      -0.035000
     10 C10          4.1260     2.1290    -0.1920 cc         1 5OR      -0.174000
     11 C11          4.1910     0.6940    -0.0330 cc         1 5OR       0.111100
     12 O12          5.4140     0.1370     0.0310 oh         1 5OR      -0.524100
     13 C13          3.0570    -0.1030     0.0550 cd         1 5OR      -0.169000
     14 N14          1.8490     0.5920    -0.0370 na         1 5OR       0.182100
     15 C15          0.6010     0.0220     0.0520 cd         1 5OR      -0.085300
     16 I16          0.2010    -2.0410     0.4100 i          1 5OR      -0.076800
     17 C17         -2.3820     2.0390     0.7310 ca         1 5OR      -0.041000
     18 C18         -3.7870     2.0040     0.7790 ca         1 5OR      -0.184000
     19 H1          -6.1680     0.2290    -0.4000 ho         1 5OR       0.465000
     20 H2          -4.3280    -0.7140    -1.2190 ha         1 5OR       0.122000
     21 H3          -1.8590    -0.6440    -1.3250 ha         1 5OR       0.124000
     22 H4           2.8450     3.8640    -0.3690 ha         1 5OR       0.147000
     23 H5           5.0470     2.7010    -0.2530 ha         1 5OR       0.126000
     24 H6           6.0700     0.8620    -0.0480 ho         1 5OR       0.474000
     25 H7           3.0480    -1.1770     0.1770 h4         1 5OR       0.170000
     26 H8          -1.8470     2.8200     1.2670 ha         1 5OR       0.124000
     27 H9          -4.3280     2.7530     1.3510 ha         1 5OR       0.122000
@<TRIPOS>BOND
     1     1     2 1   
     2     1    19 1   
     3     2     3 ar  
     4     2    18 ar  
     5     3     4 ar  
     6     3    20 1   
     7     4     5 ar  
     8     4    21 1   
     9     5     6 1   
    10     5    17 ar  
    11     6     7 1   
    12     6    15 2   
    13     7     8 2   
    14     8     9 1   
    15     8    14 1   
    16     9    10 2   
    17     9    22 1   
    18    10    11 1   
    19    10    23 1   
    20    11    12 1   
    21    11    13 2   
    22    12    24 1   
    23    13    14 1   
    24    13    25 1   
    25    14    15 1   
    26    15    16 1   
    27    17    18 ar  
    28    17    26 1   
    29    18    27 1   
@<TRIPOS>SUBSTRUCTURE
     1 5OR         1 TEMP              0 ****  ****    0 ROOT
