@<TRIPOS>MOLECULE
5OS
   31    33     1     0     0
SMALL
No Charge or Current Charge


@<TRIPOS>ATOM
      1 O01         -4.9200    -2.2440    -0.5810 oh         1 5OS      -0.529100
      2 C02         -3.8980    -1.3520    -0.4560 ca         1 5OS       0.152600
      3 C03         -3.8990    -0.1870    -1.2290 ca         1 5OS      -0.178000
      4 C04         -2.8530     0.7430    -1.1080 ca         1 5OS      -0.049000
      5 C05         -1.7770     0.5150    -0.2190 ca         1 5OS      -0.037500
      6 C06         -0.6960     1.5170    -0.1580 cc         1 5OS      -0.090000
      7 C07         -1.0140     2.8510    -0.1890 cd         1 5OS       0.136400
      8 O08          0.0790     3.6480     0.0510 os         1 5OS      -0.231000
      9 C09          1.1060     2.7590     0.2600 cd         1 5OS       0.136400
     10 C10          0.6830     1.4560     0.1800 cc         1 5OS      -0.090000
     11 C11          1.6820     0.3700     0.2020 ca         1 5OS      -0.037500
     12 C12          2.7710     0.4790     1.0970 ca         1 5OS      -0.049000
     13 C13          3.7420    -0.5340     1.1830 ca         1 5OS      -0.178000
     14 C14          3.6480    -1.6660     0.3650 ca         1 5OS       0.152600
     15 O15          4.5860    -2.6510     0.4390 oh         1 5OS      -0.529100
     16 C16          2.5950    -1.7790    -0.5480 ca         1 5OS      -0.178000
     17 C17          1.6180    -0.7730    -0.6400 ca         1 5OS       0.177000
     18 Cl1          0.4190    -0.9490    -1.9210 cl         1 5OS      -0.195500
     19 C19         -1.8060    -0.6610     0.5800 ca         1 5OS       0.177000
     20 Cl2         -0.6250    -0.9770     1.8520 cl         1 5OS      -0.195500
     21 C21         -2.8590    -1.5830     0.4530 ca         1 5OS      -0.178000
     22 H1          -4.7600    -2.9930     0.0320 ho         1 5OS       0.467500
     23 H2          -4.7090    -0.0020    -1.9300 ha         1 5OS       0.125500
     24 H3          -2.8670     1.6310    -1.7350 ha         1 5OS       0.121500
     25 H4          -1.9650     3.3500    -0.3270 h4         1 5OS       0.056600
     26 H5           2.0940     3.1750     0.4150 h4         1 5OS       0.056600
     27 H6           2.8540     1.3390     1.7570 ha         1 5OS       0.121500
     28 H7           4.5600    -0.4310     1.8920 ha         1 5OS       0.125500
     29 H8           5.2450    -2.4030     1.1220 ho         1 5OS       0.467500
     30 H9           2.5420    -2.6430    -1.2040 ha         1 5OS       0.136000
     31 H10         -2.8660    -2.4700     1.0810 ha         1 5OS       0.136000
@<TRIPOS>BOND
     1     1     2 1   
     2     1    22 1   
     3     2     3 ar  
     4     2    21 ar  
     5     3     4 ar  
     6     3    23 1   
     7     4     5 ar  
     8     4    24 1   
     9     5     6 1   
    10     5    19 ar  
    11     6     7 2   
    12     6    10 1   
    13     7     8 1   
    14     7    25 1   
    15     8     9 1   
    16     9    10 2   
    17     9    26 1   
    18    10    11 1   
    19    11    12 ar  
    20    11    17 ar  
    21    12    13 ar  
    22    12    27 1   
    23    13    14 ar  
    24    13    28 1   
    25    14    15 1   
    26    14    16 ar  
    27    15    29 1   
    28    16    17 ar  
    29    16    30 1   
    30    17    18 1   
    31    19    20 1   
    32    19    21 ar  
    33    21    31 1   
@<TRIPOS>SUBSTRUCTURE
     1 5OS         1 TEMP              0 ****  ****    0 ROOT
