@<TRIPOS>MOLECULE
5OS
   31    33     1     0     0
SMALL
abcg2


@<TRIPOS>ATOM
      1 O01         -4.3720    -2.5480    -0.4100 oh         1 5OS      -0.529100
      2 C02         -3.4910    -1.5420    -0.2750 ca         1 5OS       0.152600
      3 C03         -3.3940    -0.6120    -1.3080 ca         1 5OS      -0.178000
      4 C04         -2.4900     0.4270    -1.2080 ca         1 5OS      -0.049000
      5 C05         -1.6660     0.5940    -0.0940 ca         1 5OS      -0.037500
      6 C06         -0.7220     1.7140    -0.0240 cc         1 5OS      -0.090000
      7 C07         -1.0400     3.0310    -0.0170 cd         1 5OS       0.136400
      8 O08          0.0720     3.7880     0.0550 os         1 5OS      -0.231000
      9 C09          1.1270     2.9510     0.0940 cd         1 5OS       0.136400
     10 C10          0.7160     1.6620     0.0450 cc         1 5OS      -0.090000
     11 C11          1.5820     0.4790     0.0740 ca         1 5OS      -0.037500
     12 C12          2.3930     0.2230     1.1770 ca         1 5OS      -0.049000
     13 C13          3.2370    -0.8720     1.2360 ca         1 5OS      -0.178000
     14 C14          3.2800    -1.7650     0.1690 ca         1 5OS       0.152600
     15 O15          4.0700    -2.8530     0.1570 oh         1 5OS      -0.529100
     16 C16          2.4830    -1.5390    -0.9500 ca         1 5OS      -0.178000
     17 C17          1.6580    -0.4280    -0.9820 ca         1 5OS       0.177000
     18 CL1          0.7330    -0.1510    -2.4200 cl         1 5OS      -0.195500
     19 C19         -1.7990    -0.3410     0.9280 ca         1 5OS       0.177000
     20 CL2         -0.8700    -0.1690     2.3790 cl         1 5OS      -0.195500
     21 C21         -2.6880    -1.4020     0.8530 ca         1 5OS      -0.178000
     22 H1          -4.3610    -3.1180     0.3680 ho         1 5OS       0.467500
     23 H2          -4.0190    -0.7130    -2.1860 ha         1 5OS       0.125500
     24 H3          -2.4050     1.1330    -2.0240 ha         1 5OS       0.121500
     25 H4          -1.9860     3.5480    -0.0400 h4         1 5OS       0.056600
     26 H5           2.1070     3.3980     0.1390 h4         1 5OS       0.056600
     27 H6           2.3530     0.9020     2.0190 ha         1 5OS       0.121500
     28 H7           3.8530    -1.0330     2.1130 ha         1 5OS       0.125500
     29 H8           4.5890    -2.9010     0.9670 ho         1 5OS       0.467500
     30 H9           2.5230    -2.2200    -1.7900 ha         1 5OS       0.136000
     31 H10         -2.7610    -2.1080     1.6710 ha         1 5OS       0.136000
@<TRIPOS>BOND
     1     1     2 1   
     2     1    22 1   
     3     2     3 ar  
     4     2    21 ar  
     5     3     4 ar  
     6     3    23 1   
     7     4     5 ar  
     8     4    24 1   
     9     5     6 1   
    10     5    19 ar  
    11     6     7 2   
    12     6    10 1   
    13     7     8 1   
    14     7    25 1   
    15     8     9 1   
    16     9    10 2   
    17     9    26 1   
    18    10    11 1   
    19    11    12 ar  
    20    11    17 ar  
    21    12    13 ar  
    22    12    27 1   
    23    13    14 ar  
    24    13    28 1   
    25    14    15 1   
    26    14    16 ar  
    27    15    29 1   
    28    16    17 ar  
    29    16    30 1   
    30    17    18 1   
    31    19    20 1   
    32    19    21 ar  
    33    21    31 1   
@<TRIPOS>SUBSTRUCTURE
     1 5OS         1 TEMP              0 ****  ****    0 ROOT
