@<TRIPOS>MOLECULE
5OU
   34    36     1     0     0
SMALL
No Charge or Current Charge


@<TRIPOS>ATOM
      1 C4          -1.5280    -0.0110    -0.8490 cc         1 5OU       0.435900
      2 C5          -2.6070     0.0850    -0.0400 cd         1 5OU      -0.350600
      3 C6          -2.9060    -0.9380     0.9630 c          1 5OU       0.639600
      4 C8          -2.4790     1.8170    -1.4340 cd         1 5OU       0.447400
      5 N1          -1.9950    -1.9450     0.9620 ns         1 5OU      -0.471500
      6 N3          -0.6550    -1.0750    -0.7680 n          1 5OU      -0.360300
      7 CAU         -4.1810     2.6460     1.4660 c3         1 5OU      -0.113100
      8 N7          -3.2360     1.2670    -0.4030 na         1 5OU      -0.111500
      9 N9          -1.4350     1.0390    -1.7100 nc         1 5OU      -0.712000
     10 O6          -3.8580    -0.9180     1.7240 o          1 5OU      -0.537000
     11 C2          -0.8940    -2.0920     0.1720 c          1 5OU       0.627000
     12 O2          -0.1740    -3.0690     0.2970 o          1 5OU      -0.557000
     13 CAI          0.5420    -1.1640    -1.6340 c3         1 5OU       0.165300
     14 CAJ          1.8000    -0.6070    -0.9750 ca         1 5OU      -0.120300
     15 CAK          2.7130    -1.4710    -0.3380 ca         1 5OU      -0.076000
     16 CAL          3.8690    -0.9540     0.2740 ca         1 5OU      -0.112500
     17 CAM          4.1160     0.4280     0.2520 ca         1 5OU       0.130000
     18 Cl           5.5610     1.0740     1.0190 cl         1 5OU      -0.206000
     19 CAN          3.2110     1.2950    -0.3800 ca         1 5OU      -0.112500
     20 CAO          2.0550     0.7790    -0.9920 ca         1 5OU      -0.076000
     21 H1          -2.7420     2.7520    -1.9120 h5         1 5OU       0.063100
     22 H2          -2.1540    -2.6800     1.6310 hn         1 5OU       0.345500
     23 H3          -3.4960     3.4790     1.2640 hc         1 5OU       0.055033
     24 H4          -5.1150     3.0580     1.8670 hc         1 5OU       0.055033
     25 H5          -3.7310     2.0050     2.2330 hc         1 5OU       0.055033
     26 H6          -5.1630     1.0340     0.3980 h1         1 5OU       0.068700
     27 H7          -4.9270     2.5030    -0.5620 h1         1 5OU       0.068700
     28 H8           0.7100    -2.2110    -1.9180 h1         1 5OU       0.080200
     29 H9           0.3590    -0.6230    -2.5710 h1         1 5OU       0.080200
     30 H10          2.5280    -2.5440    -0.3140 ha         1 5OU       0.132000
     31 H11          4.5710    -1.6230     0.7650 ha         1 5OU       0.130000
     32 H12          3.4040     2.3640    -0.3950 ha         1 5OU       0.130000
     33 H13          1.3580     1.4580    -1.4800 ha         1 5OU       0.132000
     34 CAT         -4.4570     1.8450     0.1800 c3         1 5OU       0.076600
@<TRIPOS>BOND
     1     1     2 2   
     2     1     6 1   
     3     1     9 1   
     4     2     3 1   
     5     2     8 1   
     6     3     5 1   
     7     3    10 2   
     8     4     8 1   
     9     4     9 2   
    10     4    21 1   
    11     5    11 1   
    12     5    22 1   
    13     6    11 1   
    14     6    13 1   
    15     7    23 1   
    16     7    24 1   
    17     7    25 1   
    18     7    34 1   
    19     8    34 1   
    20    11    12 2   
    21    13    14 1   
    22    13    28 1   
    23    13    29 1   
    24    14    15 ar  
    25    14    20 ar  
    26    15    16 ar  
    27    15    30 1   
    28    16    17 ar  
    29    16    31 1   
    30    17    18 1   
    31    17    19 ar  
    32    19    20 ar  
    33    19    32 1   
    34    20    33 1   
    35    26    34 1   
    36    27    34 1   
@<TRIPOS>SUBSTRUCTURE
     1 5OU         1 TEMP              0 ****  ****    0 ROOT
