@<TRIPOS>MOLECULE
5OU
   34    36     1     0     0
SMALL
abcg2


@<TRIPOS>ATOM
      1 C4          -1.5010    -0.0480    -0.8540 cc         1 5OU       0.435900
      2 C5          -2.5960     0.0900    -0.0340 cd         1 5OU      -0.350600
      3 C6          -2.9290    -0.8820     0.9550 c          1 5OU       0.639600
      4 C8          -2.4470     1.7380    -1.4310 cd         1 5OU       0.447400
      5 N1          -1.9920    -1.9080     0.9580 ns         1 5OU      -0.471500
      6 N3          -0.6480    -1.1170    -0.7770 n          1 5OU      -0.360300
      7 CAU         -4.0470     2.5530     1.4890 c3         1 5OU      -0.113100
      8 N7          -3.1980     1.2590    -0.4350 na         1 5OU      -0.111500
      9 N9          -1.4080     0.9730    -1.7210 nc         1 5OU      -0.712000
     10 O6          -3.8730    -0.8830     1.7240 o          1 5OU      -0.537000
     11 C2          -0.8720    -2.0840     0.1690 c          1 5OU       0.627000
     12 O2          -0.1460    -3.0480     0.3140 o          1 5OU      -0.557000
     13 CAI          0.5320    -1.1980    -1.6340 c3         1 5OU       0.165300
     14 CAJ          1.7530    -0.6110    -0.9760 ca         1 5OU      -0.120300
     15 CAK          2.6850    -1.4300    -0.3470 ca         1 5OU      -0.076000
     16 CAL          3.8040    -0.8940     0.2730 ca         1 5OU      -0.112500
     17 CAM          3.9840     0.4800     0.2640 ca         1 5OU       0.130000
     18 CL           5.3780     1.1630     1.0370 cl         1 5OU      -0.206000
     19 CAN          3.0720     1.3190    -0.3580 ca         1 5OU      -0.112500
     20 CAO          1.9620     0.7660    -0.9770 ca         1 5OU      -0.076000
     21 H1          -2.6890     2.6620    -1.9330 h5         1 5OU       0.063100
     22 H2          -2.1460    -2.6450     1.6360 hn         1 5OU       0.345500
     23 H3          -3.2620     3.3020     1.3840 hc         1 5OU       0.055033
     24 H4          -4.9390     3.0480     1.8700 hc         1 5OU       0.055033
     25 H5          -3.7320     1.8160     2.2250 hc         1 5OU       0.055033
     26 H6          -5.1520     1.1640     0.2520 h1         1 5OU       0.068700
     27 H7          -4.7040     2.6510    -0.5630 h1         1 5OU       0.068700
     28 H8           0.6960    -2.2400    -1.8990 h1         1 5OU       0.080200
     29 H9           0.2950    -0.6630    -2.5520 h1         1 5OU       0.080200
     30 H10          2.5430    -2.5030    -0.3410 ha         1 5OU       0.132000
     31 H11          4.5240    -1.5400     0.7560 ha         1 5OU       0.130000
     32 H12          3.2270     2.3900    -0.3670 ha         1 5OU       0.130000
     33 H13          1.2520     1.4190    -1.4690 ha         1 5OU       0.132000
     34 CAT         -4.3620     1.9050     0.1530 c3         1 5OU       0.076600
@<TRIPOS>BOND
     1     1     2 2   
     2     1     6 1   
     3     1     9 1   
     4     2     3 1   
     5     2     8 1   
     6     3     5 1   
     7     3    10 2   
     8     4     8 1   
     9     4     9 2   
    10     4    21 1   
    11     5    11 1   
    12     5    22 1   
    13     6    11 1   
    14     6    13 1   
    15     7    23 1   
    16     7    24 1   
    17     7    25 1   
    18     7    34 1   
    19     8    34 1   
    20    11    12 2   
    21    13    14 1   
    22    13    28 1   
    23    13    29 1   
    24    14    15 ar  
    25    14    20 ar  
    26    15    16 ar  
    27    15    30 1   
    28    16    17 ar  
    29    16    31 1   
    30    17    18 1   
    31    17    19 ar  
    32    19    20 ar  
    33    19    32 1   
    34    20    33 1   
    35    26    34 1   
    36    27    34 1   
@<TRIPOS>SUBSTRUCTURE
     1 5OU         1 TEMP              0 ****  ****    0 ROOT
