@<TRIPOS>MOLECULE
5OV
   29    30     1     0     0
SMALL
No Charge or Current Charge


@<TRIPOS>ATOM
      1 C1          83.9660    14.0740    34.3400 c5         1 5OV       0.172500
      2 C2          83.7810    13.2610    35.6750 c5         1 5OV       0.197300
      3 C3          83.8070    14.1350    36.9710 c6         1 5OV      -0.110700
      4 C4          83.4940    13.2830    38.2360 c3         1 5OV       0.163600
      5 C5          82.8750    15.3790    36.8210 c6         1 5OV       0.150300
      6 C6          83.2690    16.2140    35.5620 c6         1 5OV       0.133300
      7 C7          83.0920    15.3660    34.2700 c6         1 5OV       0.200300
      8 N1          85.4340    14.3510    34.2680 n7         1 5OV      -0.888300
      9 S1          86.1790    12.9920    34.8210 s6         1 5OV       1.364800
     10 O2          87.2420    13.4030    35.7390 o          1 5OV      -0.534500
     11 O3          84.9260    12.3830    35.6670 os         1 5OV      -0.542700
     12 O4          82.1310    12.8390    38.2560 oh         1 5OV      -0.678000
     13 O5          82.9520    16.2200    37.9870 oh         1 5OV      -0.724000
     14 O6          82.4640    17.4070    35.4960 oh         1 5OV      -0.672000
     15 O7          83.3950    16.1720    33.1140 oh         1 5OV      -0.716000
     16 H2          83.6640    13.4320    33.4980 h1         1 5OV       0.075700
     17 H3          82.8540    12.6690    35.6540 h1         1 5OV       0.114700
     18 H4          84.8300    14.5070    37.1170 hc         1 5OV       0.091700
     19 H5          84.1760    12.4220    38.2560 h1         1 5OV       0.039700
     20 H6          83.7110    13.8820    39.1310 h1         1 5OV       0.039700
     21 H8          81.8400    15.0270    36.6850 h1         1 5OV       0.057700
     22 H10         84.3320    16.4870    35.6560 h1         1 5OV       0.075700
     23 H12         82.0390    15.0510    34.2240 h1         1 5OV       0.044700
     24 H1          85.7570    14.3580    33.3030 hn         1 5OV       0.505000
     25 H7          82.0320    12.2490    39.0380 ho         1 5OV       0.453000
     26 H9          82.4760    15.7460    38.7090 ho         1 5OV       0.518000
     27 H11         82.3660    17.6820    36.4390 ho         1 5OV       0.470000
     28 H13         83.1020    17.0790    33.3750 ho         1 5OV       0.533000
     29 O1          86.4340    12.1430    33.6570 o          1 5OV      -0.534500
@<TRIPOS>BOND
     1     1     2 1   
     2     1     7 1   
     3     1     8 1   
     4     1    16 1   
     5     2     3 1   
     6     2    11 1   
     7     2    17 1   
     8     3     4 1   
     9     3     5 1   
    10     3    18 1   
    11     4    12 1   
    12     4    19 1   
    13     4    20 1   
    14     5     6 1   
    15     5    13 1   
    16     5    21 1   
    17     6     7 1   
    18     6    14 1   
    19     6    22 1   
    20     7    15 1   
    21     7    23 1   
    22     8     9 1   
    23     8    24 1   
    24     9    10 2   
    25     9    11 1   
    26     9    29 2   
    27    12    25 1   
    28    13    26 1   
    29    14    27 1   
    30    15    28 1   
@<TRIPOS>SUBSTRUCTURE
     1 5OV         1 TEMP              0 ****  ****    0 ROOT
