@<TRIPOS>MOLECULE
5OV
   29    30     1     0     0
SMALL
bcc


@<TRIPOS>ATOM
      1 C1          83.8800    14.0820    34.3640 c5         1 5OV       0.172500
      2 C2          83.7450    13.2880    35.6630 c5         1 5OV       0.174100
      3 C3          83.8290    14.1230    36.9410 c6         1 5OV      -0.110700
      4 C4          83.5590    13.2680    38.1690 c3         1 5OV       0.140400
      5 C5          82.9010    15.3390    36.8430 c6         1 5OV       0.127100
      6 C6          83.2910    16.1870    35.6370 c6         1 5OV       0.110100
      7 C7          83.0870    15.3790    34.3640 c6         1 5OV       0.177100
      8 N1          85.3200    14.3120    34.2930 n7         1 5OV      -0.833100
      9 S1          86.1330    12.9920    34.8820 s6         1 5OV       1.506400
     10 O2          87.1070    13.4140    35.8610 o          1 5OV      -0.605300
     11 O3          84.8490    12.3550    35.6100 os         1 5OV      -0.519500
     12 O4          82.2310    12.8000    38.1160 oh         1 5OV      -0.615800
     13 O5          83.0150    16.1580    37.9850 oh         1 5OV      -0.601800
     14 O6          82.4790    17.3290    35.5150 oh         1 5OV      -0.609800
     15 O7          83.4500    16.0860    33.2080 oh         1 5OV      -0.593800
     16 H2          83.5350    13.4680    33.5230 h1         1 5OV       0.075700
     17 H3          82.8380    12.6840    35.6470 h1         1 5OV       0.114700
     18 H4          84.8480    14.5110    37.0470 hc         1 5OV       0.091700
     19 H5          84.2800    12.4410    38.1990 h1         1 5OV       0.039700
     20 H6          83.7440    13.8700    39.0670 h1         1 5OV       0.039700
     21 H8          81.8620    15.0090    36.7090 h1         1 5OV       0.057700
     22 H10         84.3510    16.4680    35.7280 h1         1 5OV       0.075700
     23 H12         82.0250    15.0880    34.3270 h1         1 5OV       0.044700
     24 H1          85.6800    14.6380    33.4020 hn         1 5OV       0.449800
     25 H7          82.0820    12.2110    38.8610 ho         1 5OV       0.414000
     26 H9          82.3740    15.8760    38.6420 ho         1 5OV       0.419000
     27 H11         82.6010    17.8690    36.3030 ho         1 5OV       0.431000
     28 H13         82.9530    16.9110    33.1890 ho         1 5OV       0.434000
     29 O1          86.5700    12.0560    33.8710 o          1 5OV      -0.605300
@<TRIPOS>BOND
     1     1     2 1   
     2     1     7 1   
     3     1     8 1   
     4     1    16 1   
     5     2     3 1   
     6     2    11 1   
     7     2    17 1   
     8     3     4 1   
     9     3     5 1   
    10     3    18 1   
    11     4    12 1   
    12     4    19 1   
    13     4    20 1   
    14     5     6 1   
    15     5    13 1   
    16     5    21 1   
    17     6     7 1   
    18     6    14 1   
    19     6    22 1   
    20     7    15 1   
    21     7    23 1   
    22     8     9 1   
    23     8    24 1   
    24     9    10 2   
    25     9    11 1   
    26     9    29 2   
    27    12    25 1   
    28    13    26 1   
    29    14    27 1   
    30    15    28 1   
@<TRIPOS>SUBSTRUCTURE
     1 5OV         1 TEMP              0 ****  ****    0 ROOT
