@<TRIPOS>MOLECULE
5OW
   55    55     1     0     0
SMALL
abcg2


@<TRIPOS>ATOM
      1 N1          54.1890    30.2010    39.4600 nb         1 5OW      -0.683000
      2 C2          55.0150    31.0910    38.9260 ca         1 5OW       0.249300
      3 C3          56.0920    31.6210    39.6550 ca         1 5OW       0.174100
      4 C7          59.8590    33.4450    40.8440 c          1 5OW       0.711000
      5 O8          60.8580    34.1400    41.0700 o          1 5OW      -0.721000
      6 CA          53.2450    35.4250    40.4650 c3         1 5OW       0.023500
      7 CB          54.6130    34.7480    40.4140 c3         1 5OW      -0.064400
      8 CD          55.6380    34.8370    42.8090 c3         1 5OW      -0.084400
      9 CE          55.8060    33.3350    43.0010 c3         1 5OW       0.207800
     10 CG          55.6860    35.3030    41.3540 c3         1 5OW      -0.061400
     11 O9          58.9920    33.6650    39.9610 o          1 5OW      -0.721000
     12 C1          59.7050    32.1790    41.7340 c3         1 5OW       0.016500
     13 C10         60.9170    31.2630    41.5600 c3         1 5OW       0.144600
     14 S11         62.4710    32.0260    42.1450 sh         1 5OW      -0.443800
     15 N4          58.5420    31.4270    41.3650 n2         1 5OW      -0.754900
     16 C4          56.2440    31.2320    40.9900 ca         1 5OW      -0.217900
     17 C5          55.3730    30.2960    41.5380 ca         1 5OW      -0.030300
     18 C11         55.4620    29.8260    42.9670 c3         1 5OW       0.279900
     19 OP4         54.3040    30.2070    43.6440 os         1 5OW      -0.580400
     20 P           54.2910    30.0430    45.3570 p5         1 5OW       1.281900
     21 OP3         54.6500    28.5810    45.6030 o          1 5OW      -0.932833
     22 OP2         55.3410    31.0370    45.8540 o          1 5OW      -0.932833
     23 OP1         52.8490    30.4250    45.6590 o          1 5OW      -0.932833
     24 C6          54.3690    29.8080    40.7140 ca         1 5OW       0.271900
     25 C8          54.7560    31.5470    37.5220 c3         1 5OW      -0.112400
     26 O3          56.8830    32.4950    39.0350 oh         1 5OW      -0.606100
     27 NZ          57.1080    32.8650    42.5680 nu         1 5OW      -0.913400
     28 N           52.6510    35.3100    41.7910 n8         1 5OW      -1.000200
     29 C           52.3390    34.9190    39.3040 c          1 5OW       0.694000
     30 O           51.1800    34.5660    39.5970 o          1 5OW      -0.757500
     31 H2          53.4110    36.4960    40.2730 h1         1 5OW       0.007700
     32 H3          54.9770    34.8380    39.3910 hc         1 5OW       0.056700
     33 H4          54.4810    33.6730    40.5810 hc         1 5OW       0.056700
     34 H5          56.4220    35.3530    43.3730 hc         1 5OW       0.024700
     35 H6          54.6910    35.1300    43.2630 hc         1 5OW       0.024700
     36 H7          55.0380    32.7920    42.4540 h1         1 5OW       0.092700
     37 H8          55.6610    33.0740    44.0530 h1         1 5OW       0.092700
     38 H9          56.6660    35.0460    40.9430 hc         1 5OW       0.020200
     39 H10         55.6400    36.3960    41.3360 hc         1 5OW       0.020200
     40 H11         59.7140    32.5130    42.7850 h1         1 5OW       0.029700
     41 H12         60.7550    30.3590    42.1460 h1         1 5OW       0.043700
     42 H13         61.0150    30.9680    40.5140 h1         1 5OW       0.043700
     43 H14         63.0530    30.8810    42.5280 hs         1 5OW       0.107800
     44 H15         55.5900    28.7330    42.9650 h1         1 5OW       0.001200
     45 H16         56.3690    30.2330    43.4350 h1         1 5OW       0.001200
     46 H19         53.6720    29.0650    41.0910 h4         1 5OW       0.012100
     47 H20         53.9540    30.9580    37.0820 hc         1 5OW       0.028367
     48 H21         54.4560    32.5970    37.4990 hc         1 5OW       0.028367
     49 H22         55.6400    31.4540    36.8890 hc         1 5OW       0.028367
     50 H23         57.6940    32.8090    39.5440 ho         1 5OW       0.556000
     51 H24         57.8890    33.2960    43.0380 hn         1 5OW       0.462000
     52 H25         51.6700    35.5550    41.7120 hn         1 5OW       0.385500
     53 H26         52.6400    34.3300    42.0500 hn         1 5OW       0.385500
     54 OXT         52.8400    34.9370    38.1580 o          1 5OW      -0.757500
     55 C9          57.3860    31.8510    41.7180 ce         1 5OW       0.744800
@<TRIPOS>BOND
     1     1     2 ar  
     2     1    24 ar  
     3     2     3 ar  
     4     2    25 1   
     5     3    16 ar  
     6     3    26 1   
     7     4     5 1   
     8     4    11 1   
     9     4    12 1   
    10     6     7 1   
    11     6    28 1   
    12     6    29 1   
    13     6    31 1   
    14     7    10 1   
    15     7    32 1   
    16     7    33 1   
    17     8     9 1   
    18     8    10 1   
    19     8    34 1   
    20     8    35 1   
    21     9    27 1   
    22     9    36 1   
    23     9    37 1   
    24    10    38 1   
    25    10    39 1   
    26    12    13 1   
    27    12    15 1   
    28    12    40 1   
    29    13    14 1   
    30    13    41 1   
    31    13    42 1   
    32    14    43 1   
    33    15    55 2   
    34    16    17 ar  
    35    16    55 1   
    36    17    18 1   
    37    17    24 ar  
    38    18    19 1   
    39    18    44 1   
    40    18    45 1   
    41    19    20 1   
    42    20    21 1   
    43    20    22 1   
    44    20    23 1   
    45    24    46 1   
    46    25    47 1   
    47    25    48 1   
    48    25    49 1   
    49    26    50 1   
    50    27    51 1   
    51    27    55 1   
    52    28    52 1   
    53    28    53 1   
    54    29    30 1   
    55    29    54 1   
@<TRIPOS>SUBSTRUCTURE
     1 5OW         1 TEMP              0 ****  ****    0 ROOT
