@<TRIPOS>MOLECULE
5OW
   55    55     1     0     0
SMALL
No Charge or Current Charge


@<TRIPOS>ATOM
      1 N1          54.2810    29.8570    39.6490 nb         1 5OW      -0.683000
      2 C2          55.0360    30.8260    39.0770 ca         1 5OW       0.249300
      3 C3          56.0800    31.5150    39.7640 ca         1 5OW       0.174100
      4 C7          59.7060    33.3570    40.9390 c          1 5OW       0.711000
      5 O8          60.0250    34.4770    41.3120 o          1 5OW      -0.721000
      6 CA          53.2130    35.6790    40.4420 c3         1 5OW       0.023500
      7 CB          54.6090    35.0340    40.1950 c3         1 5OW      -0.064400
      8 CD          55.5990    35.0160    42.6500 c3         1 5OW      -0.084400
      9 CE          55.6200    33.4880    42.8780 c3         1 5OW       0.207800
     10 CG          55.7420    35.4610    41.1710 c3         1 5OW      -0.061400
     11 O9          59.1660    33.1400    39.8600 o          1 5OW      -0.721000
     12 C1          59.7770    32.1720    41.9680 c3         1 5OW       0.016500
     13 C10         60.9650    31.2470    41.6170 c3         1 5OW       0.144600
     14 S11         62.6360    32.0470    41.7330 sh         1 5OW      -0.443800
     15 N4          58.5220    31.3540    42.0590 n2         1 5OW      -0.754900
     16 C4          56.3330    31.1810    41.1150 ca         1 5OW      -0.217900
     17 C5          55.5260    30.1760    41.7150 ca         1 5OW      -0.030300
     18 C11         55.6840    29.7350    43.1700 c3         1 5OW       0.279900
     19 OP4         54.5810    30.2360    43.9280 os         1 5OW      -0.580400
     20 P           54.3680    29.6850    45.4230 p5         1 5OW       1.281900
     21 OP3         54.1200    28.2190    45.3880 o          1 5OW      -0.932833
     22 OP2         55.5710    29.9790    46.2490 o          1 5OW      -0.932833
     23 OP1         53.1870    30.3660    46.0190 o          1 5OW      -0.932833
     24 C6          54.5300    29.5490    40.9410 ca         1 5OW       0.271900
     25 C8          54.7000    31.1450    37.6240 c3         1 5OW      -0.112400
     26 O3          56.7900    32.4950    39.1080 oh         1 5OW      -0.606100
     27 NZ          56.9830    32.9530    42.6910 nu         1 5OW      -0.913400
     28 N           52.4580    34.9550    41.5260 n8         1 5OW      -1.000200
     29 C           52.4380    35.8580    39.0660 c          1 5OW       0.694000
     30 O           51.8570    34.8890    38.5920 o          1 5OW      -0.757500
     31 H2          53.3920    36.6940    40.8220 h1         1 5OW       0.007700
     32 H3          54.9380    35.3200    39.1880 hc         1 5OW       0.056700
     33 H4          54.5150    33.9420    40.1690 hc         1 5OW       0.056700
     34 H5          56.4030    35.4760    43.2380 hc         1 5OW       0.024700
     35 H6          54.6670    35.4220    43.0590 hc         1 5OW       0.024700
     36 H7          54.8890    33.0060    42.2150 h1         1 5OW       0.092700
     37 H8          55.2880    33.2850    43.9070 h1         1 5OW       0.092700
     38 H9          56.6940    35.0790    40.7830 hc         1 5OW       0.020200
     39 H10         55.8260    36.5550    41.1460 hc         1 5OW       0.020200
     40 H11         59.9850    32.6130    42.9520 h1         1 5OW       0.029700
     41 H12         60.9660    30.3890    42.3010 h1         1 5OW       0.043700
     42 H13         60.8380    30.8620    40.5960 h1         1 5OW       0.043700
     43 H14         63.3460    30.9520    41.3780 hs         1 5OW       0.107800
     44 H15         55.7090    28.6380    43.1990 h1         1 5OW       0.001200
     45 H16         56.6300    30.0960    43.5880 h1         1 5OW       0.001200
     46 H19         53.9020    28.7710    41.3740 h4         1 5OW       0.012100
     47 H20         53.8770    30.5280    37.2420 hc         1 5OW       0.028367
     48 H21         54.4020    32.1950    37.5150 hc         1 5OW       0.028367
     49 H22         55.5680    30.9740    36.9760 hc         1 5OW       0.028367
     50 H23         57.6910    32.6540    39.5280 ho         1 5OW       0.556000
     51 H24         57.7070    33.2610    43.3290 hn         1 5OW       0.462000
     52 H25         51.5860    35.4620    41.7160 hn         1 5OW       0.385500
     53 H26         52.1250    34.0650    41.1390 hn         1 5OW       0.385500
     54 OXT         52.3440    36.9820    38.5920 o          1 5OW      -0.757500
     55 C9          57.3630    31.8880    41.9040 ce         1 5OW       0.744800
@<TRIPOS>BOND
     1     1     2 ar  
     2     1    24 ar  
     3     2     3 ar  
     4     2    25 1   
     5     3    16 ar  
     6     3    26 1   
     7     4     5 1   
     8     4    11 1   
     9     4    12 1   
    10     6     7 1   
    11     6    28 1   
    12     6    29 1   
    13     6    31 1   
    14     7    10 1   
    15     7    32 1   
    16     7    33 1   
    17     8     9 1   
    18     8    10 1   
    19     8    34 1   
    20     8    35 1   
    21     9    27 1   
    22     9    36 1   
    23     9    37 1   
    24    10    38 1   
    25    10    39 1   
    26    12    13 1   
    27    12    15 1   
    28    12    40 1   
    29    13    14 1   
    30    13    41 1   
    31    13    42 1   
    32    14    43 1   
    33    15    55 2   
    34    16    17 ar  
    35    16    55 1   
    36    17    18 1   
    37    17    24 ar  
    38    18    19 1   
    39    18    44 1   
    40    18    45 1   
    41    19    20 1   
    42    20    21 1   
    43    20    22 1   
    44    20    23 1   
    45    24    46 1   
    46    25    47 1   
    47    25    48 1   
    48    25    49 1   
    49    26    50 1   
    50    27    51 1   
    51    27    55 1   
    52    28    52 1   
    53    28    53 1   
    54    29    30 1   
    55    29    54 1   
@<TRIPOS>SUBSTRUCTURE
     1 5OW         1 TEMP              0 ****  ****    0 ROOT
