@<TRIPOS>MOLECULE
5OX
   59    58     1     0     0
SMALL
No Charge or Current Charge


@<TRIPOS>ATOM
      1 O24          9.0410     2.6470    -0.7600 o          1 5OX      -0.740000
      2 C23          8.8400     1.4430    -0.8120 c          1 5OX       0.718000
      3 O25          9.6920     0.6040    -0.5650 o          1 5OX      -0.740000
      4 C22          7.4160     0.9580    -1.1410 c3         1 5OX      -0.207400
      5 C21          6.5870     0.8180     0.1590 c3         1 5OX      -0.046400
      6 C20          5.1390     0.3360    -0.0960 c3         1 5OX      -0.177400
      7 C19          4.3600     0.1960     1.2210 c          1 5OX       0.568100
      8 O26          3.7810     1.1500     1.7270 o          1 5OX      -0.517100
      9 C18          4.3320    -1.1970     1.8700 c3         1 5OX      -0.162200
     10 C17          3.0120    -1.9090     1.6280 c2         1 5OX      -0.180200
     11 C16          2.8700    -3.0570     0.9490 c2         1 5OX      -0.239200
     12 C15          1.5560    -3.7680     0.7010 c3         1 5OX      -0.031200
     13 C14          1.1750    -3.7830    -0.7930 c3         1 5OX      -0.044200
     14 C13         -0.1480    -4.4830    -1.0440 c2         1 5OX      -0.213200
     15 C12         -1.3750    -3.9310    -1.0270 c2         1 5OX      -0.217200
     16 C11         -1.7350    -2.4880    -0.7180 c3         1 5OX      -0.015000
     17 C10         -2.4640    -1.8520    -1.8860 c2         1 5OX      -0.201200
     18 C9          -3.4100    -0.8970    -1.8260 c2         1 5OX      -0.224200
     19 C8          -3.9500    -0.2190    -0.5790 c3         1 5OX      -0.011000
     20 C7          -4.1820     1.2600    -0.8230 c2         1 5OX      -0.206200
     21 C6          -5.2020     2.0080    -0.3640 c2         1 5OX      -0.221200
     22 C5          -6.3440     1.5510     0.5230 c3         1 5OX      -0.011000
     23 C4          -6.7940     2.6710     1.4430 c2         1 5OX      -0.208200
     24 C3          -8.0180     3.2240     1.5230 c2         1 5OX      -0.222200
     25 C2          -9.2370     2.8840     0.6860 c3         1 5OX      -0.043200
     26 C1         -10.0870     1.7690     1.3210 c3         1 5OX      -0.085100
     27 H2           6.8890     1.7000    -1.7550 hc         1 5OX       0.012700
     28 H3           7.4450    -0.0430    -1.5890 hc         1 5OX       0.012700
     29 H4           7.0900     0.1130     0.8330 hc         1 5OX       0.053700
     30 H5           6.5590     1.7860     0.6760 hc         1 5OX       0.053700
     31 H6           4.6310     1.0600    -0.7440 hc         1 5OX       0.045700
     32 H7           5.2000    -0.6420    -0.5880 hc         1 5OX       0.045700
     33 H8           5.1490    -1.8020     1.4600 hc         1 5OX       0.060200
     34 H9           4.4780    -1.0800     2.9500 hc         1 5OX       0.060200
     35 H10          2.1400    -1.4060     2.0560 ha         1 5OX       0.175000
     36 H11          3.7400    -3.5600     0.5220 ha         1 5OX       0.162000
     37 H12          1.6160    -4.8000     1.0680 hc         1 5OX       0.039700
     38 H13          0.7490    -3.2850     1.2660 hc         1 5OX       0.039700
     39 H14          1.1460    -2.7520    -1.1630 hc         1 5OX       0.051200
     40 H15          1.9700    -4.2820    -1.3620 hc         1 5OX       0.051200
     41 H16         -0.0430    -5.5450    -1.2720 ha         1 5OX       0.160000
     42 H17         -2.2450    -4.5580    -1.2330 ha         1 5OX       0.161000
     43 H18         -2.3560    -2.4640     0.1850 hc         1 5OX       0.055700
     44 H19         -0.8430    -1.8970    -0.4810 hc         1 5OX       0.055700
     45 H20         -2.1630    -2.2450    -2.8590 ha         1 5OX       0.171000
     46 H21         -3.8630    -0.5360    -2.7520 ha         1 5OX       0.166000
     47 H22         -4.8810    -0.7150    -0.2800 hc         1 5OX       0.047700
     48 H23         -3.2540    -0.3370     0.2600 hc         1 5OX       0.047700
     49 H24         -3.4170     1.7260    -1.4480 ha         1 5OX       0.174000
     50 H25         -5.2490     3.0670    -0.6280 ha         1 5OX       0.169000
     51 H26         -7.1690     1.1930    -0.1030 hc         1 5OX       0.048700
     52 H27         -6.0390     0.6930     1.1340 hc         1 5OX       0.048700
     53 H28         -6.0050     3.0230     2.1110 ha         1 5OX       0.167000
     54 H29         -8.1980     4.0200     2.2490 ha         1 5OX       0.163000
     55 H30         -9.8600     3.7780     0.5570 hc         1 5OX       0.043700
     56 H31         -8.9450     2.5760    -0.3250 hc         1 5OX       0.043700
     57 H32        -10.9630     1.5520     0.6980 hc         1 5OX       0.031367
     58 H33         -9.5010     0.8480     1.4250 hc         1 5OX       0.031367
     59 H34        -10.4390     2.0700     2.3160 hc         1 5OX       0.031367
@<TRIPOS>BOND
     1     1     2 1   
     2     2     3 1   
     3     2     4 1   
     4     4     5 1   
     5     4    27 1   
     6     4    28 1   
     7     5     6 1   
     8     5    29 1   
     9     5    30 1   
    10     6     7 1   
    11     6    31 1   
    12     6    32 1   
    13     7     8 2   
    14     7     9 1   
    15     9    10 1   
    16     9    33 1   
    17     9    34 1   
    18    10    11 2   
    19    10    35 1   
    20    11    12 1   
    21    11    36 1   
    22    12    13 1   
    23    12    37 1   
    24    12    38 1   
    25    13    14 1   
    26    13    39 1   
    27    13    40 1   
    28    14    15 2   
    29    14    41 1   
    30    15    16 1   
    31    15    42 1   
    32    16    17 1   
    33    16    43 1   
    34    16    44 1   
    35    17    18 2   
    36    17    45 1   
    37    18    19 1   
    38    18    46 1   
    39    19    20 1   
    40    19    47 1   
    41    19    48 1   
    42    20    21 2   
    43    20    49 1   
    44    21    22 1   
    45    21    50 1   
    46    22    23 1   
    47    22    51 1   
    48    22    52 1   
    49    23    24 2   
    50    23    53 1   
    51    24    25 1   
    52    24    54 1   
    53    25    26 1   
    54    25    55 1   
    55    25    56 1   
    56    26    57 1   
    57    26    58 1   
    58    26    59 1   
@<TRIPOS>SUBSTRUCTURE
     1 5OX         1 TEMP              0 ****  ****    0 ROOT
