@<TRIPOS>MOLECULE
5OX
   59    58     1     0     0
SMALL
bcc


@<TRIPOS>ATOM
      1 O24          7.9870     3.5140    -1.4030 o          1 5OX      -0.845300
      2 C23          8.9110     2.6780    -1.3770 c          1 5OX       0.928600
      3 O25         10.1090     2.8930    -1.6620 o          1 5OX      -0.845300
      4 C22          8.5700     1.2370    -0.9610 c3         1 5OX      -0.207400
      5 C21          7.1190     0.9740    -0.5880 c3         1 5OX      -0.046400
      6 C20          6.9080    -0.4780    -0.1920 c3         1 5OX      -0.177400
      7 C19          5.5050    -0.8470     0.2140 c          1 5OX       0.568100
      8 O26          4.5870    -0.0590     0.1870 o          1 5OX      -0.517100
      9 C18          5.3180    -2.2810     0.6650 c3         1 5OX      -0.162200
     10 C17          3.9250    -2.6170     1.0840 c2         1 5OX      -0.130200
     11 C16          3.1790    -3.5550     0.5110 c2         1 5OX      -0.189200
     12 C15          1.7850    -3.9120     0.9180 c3         1 5OX      -0.031200
     13 C14          0.7720    -3.6440    -0.2040 c3         1 5OX      -0.044200
     14 C13         -0.6020    -4.1070     0.1650 c2         1 5OX      -0.163200
     15 C12         -1.6770    -3.3540     0.3930 c2         1 5OX      -0.167200
     16 C11         -1.7760    -1.8580     0.3040 c3         1 5OX      -0.015000
     17 C10         -2.6170    -1.4540    -0.8730 c2         1 5OX      -0.151200
     18 C9          -3.8250    -0.8940    -0.8540 c2         1 5OX      -0.174200
     19 C8          -4.6280    -0.4920     0.3490 c3         1 5OX      -0.011000
     20 C7          -4.7050     1.0040     0.4570 c2         1 5OX      -0.156200
     21 C6          -5.7780     1.7730     0.2810 c2         1 5OX      -0.171200
     22 C5          -7.1780     1.3280    -0.0330 c3         1 5OX      -0.011000
     23 C4          -8.0710     1.5210     1.1600 c2         1 5OX      -0.158200
     24 C3          -9.0330     2.4300     1.3080 c2         1 5OX      -0.172200
     25 C2          -9.4820     3.4550     0.3130 c3         1 5OX      -0.043200
     26 C1         -10.8940     3.1680    -0.1980 c3         1 5OX      -0.085100
     27 H2           8.8670     0.5680    -1.7770 hc         1 5OX       0.012700
     28 H3           9.2210     0.9590    -0.1240 hc         1 5OX       0.012700
     29 H4           6.8220     1.6270     0.2360 hc         1 5OX       0.053700
     30 H5           6.4680     1.2290    -1.4270 hc         1 5OX       0.053700
     31 H6           7.2000    -1.1490    -1.0100 hc         1 5OX       0.045700
     32 H7           7.5740    -0.7550     0.6340 hc         1 5OX       0.045700
     33 H8           5.6570    -2.9370    -0.1430 hc         1 5OX       0.060200
     34 H9           6.0230    -2.4540     1.4870 hc         1 5OX       0.060200
     35 H10          3.5220    -2.0600     1.9260 ha         1 5OX       0.125000
     36 H11          3.5840    -4.1100    -0.3340 ha         1 5OX       0.112000
     37 H12          1.7430    -4.9740     1.1830 hc         1 5OX       0.039700
     38 H13          1.4940    -3.3550     1.8120 hc         1 5OX       0.039700
     39 H14          0.7830    -2.5820    -0.4530 hc         1 5OX       0.051200
     40 H15          1.0970    -4.1740    -1.1050 hc         1 5OX       0.051200
     41 H16         -0.7130    -5.1830     0.2750 ha         1 5OX       0.110000
     42 H17         -2.6040    -3.8570     0.6530 ha         1 5OX       0.111000
     43 H18         -2.1980    -1.4720     1.2350 hc         1 5OX       0.055700
     44 H19         -0.7860    -1.4090     0.2040 hc         1 5OX       0.055700
     45 H20         -2.1780    -1.6750    -1.8410 ha         1 5OX       0.121000
     46 H21         -4.2920    -0.6680    -1.8080 ha         1 5OX       0.116000
     47 H22         -5.6270    -0.9270     0.2740 hc         1 5OX       0.047700
     48 H23         -4.1870    -0.8930     1.2650 hc         1 5OX       0.047700
     49 H24         -3.7630     1.4930     0.6850 ha         1 5OX       0.124000
     50 H25         -5.6560     2.8460     0.4000 ha         1 5OX       0.119000
     51 H26         -7.5500     1.8920    -0.8910 hc         1 5OX       0.048700
     52 H27         -7.1950     0.2760    -0.3260 hc         1 5OX       0.048700
     53 H28         -7.8750     0.8460     1.9880 ha         1 5OX       0.117000
     54 H29         -9.5840     2.4290     2.2460 ha         1 5OX       0.113000
     55 H30         -9.4720     4.4390     0.7910 hc         1 5OX       0.043700
     56 H31         -8.7910     3.5180    -0.5280 hc         1 5OX       0.043700
     57 H32        -11.2280     3.9440    -0.8880 hc         1 5OX       0.031367
     58 H33        -10.9310     2.2120    -0.7230 hc         1 5OX       0.031367
     59 H34        -11.6100     3.1240     0.6240 hc         1 5OX       0.031367
@<TRIPOS>BOND
     1     1     2 1   
     2     2     3 1   
     3     2     4 1   
     4     4     5 1   
     5     4    27 1   
     6     4    28 1   
     7     5     6 1   
     8     5    29 1   
     9     5    30 1   
    10     6     7 1   
    11     6    31 1   
    12     6    32 1   
    13     7     8 2   
    14     7     9 1   
    15     9    10 1   
    16     9    33 1   
    17     9    34 1   
    18    10    11 2   
    19    10    35 1   
    20    11    12 1   
    21    11    36 1   
    22    12    13 1   
    23    12    37 1   
    24    12    38 1   
    25    13    14 1   
    26    13    39 1   
    27    13    40 1   
    28    14    15 2   
    29    14    41 1   
    30    15    16 1   
    31    15    42 1   
    32    16    17 1   
    33    16    43 1   
    34    16    44 1   
    35    17    18 2   
    36    17    45 1   
    37    18    19 1   
    38    18    46 1   
    39    19    20 1   
    40    19    47 1   
    41    19    48 1   
    42    20    21 2   
    43    20    49 1   
    44    21    22 1   
    45    21    50 1   
    46    22    23 1   
    47    22    51 1   
    48    22    52 1   
    49    23    24 2   
    50    23    53 1   
    51    24    25 1   
    52    24    54 1   
    53    25    26 1   
    54    25    55 1   
    55    25    56 1   
    56    26    57 1   
    57    26    58 1   
    58    26    59 1   
@<TRIPOS>SUBSTRUCTURE
     1 5OX         1 TEMP              0 ****  ****    0 ROOT
