@<TRIPOS>MOLECULE
5OZ
   13    12     1     0     0
SMALL
bcc


@<TRIPOS>ATOM
      1 O           -1.9690    -0.0820    -0.1120 o          1 5OZ      -0.513100
      2 C01          0.4350    -0.0140    -0.3200 c3         1 5OZ      -0.187700
      3 C02         -0.8790    -0.0420     0.4030 c          1 5OZ       0.576900
      4 C03          1.1880     1.2580     0.0720 c3         1 5OZ      -0.083600
      5 C            1.2280    -1.2660     0.0580 c3         1 5OZ      -0.083600
      6 H2           0.2410    -0.0130    -1.3960 hc         1 5OZ       0.074700
      7 H3          -0.7770    -0.0250     1.5060 h4         1 5OZ      -0.021800
      8 H5           1.3390     1.3120     1.1520 hc         1 5OZ       0.039700
      9 H6           2.1700     1.2720    -0.4010 hc         1 5OZ       0.039700
     10 H7           0.6530     2.1550    -0.2400 hc         1 5OZ       0.039700
     11 H8           0.7190    -2.1770    -0.2570 hc         1 5OZ       0.039700
     12 H9           2.2080    -1.2470    -0.4190 hc         1 5OZ       0.039700
     13 H10          1.3870    -1.3240     1.1370 hc         1 5OZ       0.039700
@<TRIPOS>BOND
     1     1     3 2   
     2     2     3 1   
     3     2     4 1   
     4     2     5 1   
     5     2     6 1   
     6     3     7 1   
     7     4     8 1   
     8     4     9 1   
     9     4    10 1   
    10     5    11 1   
    11     5    12 1   
    12     5    13 1   
@<TRIPOS>SUBSTRUCTURE
     1 5OZ         1 TEMP              0 ****  ****    0 ROOT
