@<TRIPOS>MOLECULE
5OZ
   13    12     1     0     0
SMALL
No Charge or Current Charge


@<TRIPOS>ATOM
      1 O           -1.9970    -0.0590    -0.1920 o          1 5OZ      -0.513100
      2 C01          0.4390    -0.0160    -0.2800 c3         1 5OZ      -0.187700
      3 C02         -0.9320    -0.0430     0.4170 c          1 5OZ       0.576900
      4 C03          1.2140     1.2750     0.0740 c3         1 5OZ      -0.083600
      5 C            1.2580    -1.2830     0.0650 c3         1 5OZ      -0.083600
      6 H2           0.2540    -0.0160    -1.3610 hc         1 5OZ       0.074700
      7 H3          -0.9070    -0.0460     1.5290 h4         1 5OZ      -0.021800
      8 H5           1.4200     1.3270     1.1500 hc         1 5OZ       0.039700
      9 H6           2.1710     1.3130    -0.4610 hc         1 5OZ       0.039700
     10 H7           0.6340     2.1630    -0.2070 hc         1 5OZ       0.039700
     11 H8           0.7090    -2.1890    -0.2230 hc         1 5OZ       0.039700
     12 H9           2.2150    -1.2840    -0.4700 hc         1 5OZ       0.039700
     13 H10          1.4660    -1.3360     1.1410 hc         1 5OZ       0.039700
@<TRIPOS>BOND
     1     1     3 2   
     2     2     3 1   
     3     2     4 1   
     4     2     5 1   
     5     2     6 1   
     6     3     7 1   
     7     4     8 1   
     8     4     9 1   
     9     4    10 1   
    10     5    11 1   
    11     5    12 1   
    12     5    13 1   
@<TRIPOS>SUBSTRUCTURE
     1 5OZ         1 TEMP              0 ****  ****    0 ROOT
