@<TRIPOS>MOLECULE
5P0
   39    39     1     0     0
SMALL
No Charge or Current Charge


@<TRIPOS>ATOM
      1 C1          36.1190    42.7710    73.2640 c6         1 5P0       0.038700
      2 C2          37.5030    42.3090    73.8020 c          1 5P0       0.567000
      3 C4          38.4710    42.4140    71.4770 ce         1 5P0      -0.017600
      4 C5          37.1750    43.0160    70.9480 c          1 5P0       0.571200
      5 C9          39.5150    42.1380    70.6550 c2         1 5P0      -0.227200
      6 C10         35.0380    41.6620    73.5080 c3         1 5P0      -0.073700
      7 C11         40.8550    41.4980    71.0030 c3         1 5P0       0.223200
      8 C12         40.7350    39.9420    70.9910 c3         1 5P0       0.126600
      9 C14         41.9520    41.9930    70.0320 c3         1 5P0      -0.106100
     10 C16         33.6030    42.2120    73.2980 c3         1 5P0      -0.094100
     11 C17         35.2930    40.3650    72.6800 c3         1 5P0      -0.083400
     12 C18         34.3690    39.1800    73.0390 c3         1 5P0       0.164600
     13 N3          38.4950    42.1680    72.8680 ns         1 5P0      -0.408100
     14 N6          36.1370    43.1890    71.8390 ns         1 5P0      -0.500900
     15 O7          37.0210    43.3430    69.7810 o          1 5P0      -0.548000
     16 O8          37.7170    42.0880    74.9850 o          1 5P0      -0.541000
     17 O13         41.9300    39.3300    71.5220 oh         1 5P0      -0.673000
     18 O15         41.2550    41.8770    72.3200 oh         1 5P0      -0.676000
     19 O19         34.7640    38.0220    72.2970 oh         1 5P0      -0.666000
     20 H1          35.8590    43.6520    73.8680 h1         1 5P0       0.086700
     21 H3          39.4150    42.3540    69.5900 ha         1 5P0       0.216000
     22 H5          35.0980    41.3790    74.5670 hc         1 5P0       0.072700
     23 H6          39.8610    39.6450    71.5870 h1         1 5P0       0.039700
     24 H7          40.5570    39.6060    69.9600 h1         1 5P0       0.039700
     25 H8          42.9350    41.5910    70.3030 hc         1 5P0       0.049367
     26 H9          41.7310    41.6820    69.0040 hc         1 5P0       0.049367
     27 H10         42.0180    43.0880    70.0500 hc         1 5P0       0.049367
     28 H11         33.4630    43.1480    73.8520 hc         1 5P0       0.039367
     29 H12         33.4070    42.4100    72.2370 hc         1 5P0       0.039367
     30 H13         32.8490    41.5030    73.6590 hc         1 5P0       0.039367
     31 H14         36.3300    40.0410    72.8290 hc         1 5P0       0.057200
     32 H15         35.1860    40.5840    71.6110 hc         1 5P0       0.057200
     33 H16         33.3280    39.4380    72.8050 h1         1 5P0       0.019200
     34 H17         34.4370    38.9810    74.1170 h1         1 5P0       0.019200
     35 H18         39.4050    41.8760    73.2130 hn         1 5P0       0.357500
     36 H19         35.2970    43.6000    71.4490 hn         1 5P0       0.325500
     37 H20         41.8220    38.3560    71.4320 ho         1 5P0       0.454000
     38 H21         41.8960    41.1730    72.5730 ho         1 5P0       0.467000
     39 H22         34.1530    37.2960    72.5550 ho         1 5P0       0.445000
@<TRIPOS>BOND
     1     1     2 1   
     2     1     6 1   
     3     1    14 1   
     4     1    20 1   
     5     2    13 1   
     6     2    16 2   
     7     3     4 1   
     8     3     5 2   
     9     3    13 1   
    10     4    14 1   
    11     4    15 2   
    12     5     7 1   
    13     5    21 1   
    14     6    10 1   
    15     6    11 1   
    16     6    22 1   
    17     7     8 1   
    18     7     9 1   
    19     7    18 1   
    20     8    17 1   
    21     8    23 1   
    22     8    24 1   
    23     9    25 1   
    24     9    26 1   
    25     9    27 1   
    26    10    28 1   
    27    10    29 1   
    28    10    30 1   
    29    11    12 1   
    30    11    31 1   
    31    11    32 1   
    32    12    19 1   
    33    12    33 1   
    34    12    34 1   
    35    13    35 1   
    36    14    36 1   
    37    17    37 1   
    38    18    38 1   
    39    19    39 1   
@<TRIPOS>SUBSTRUCTURE
     1 5P0         1 TEMP              0 ****  ****    0 ROOT
