@<TRIPOS>MOLECULE
5P0
   39    39     1     0     0
SMALL
bcc


@<TRIPOS>ATOM
      1 C1          36.1290    42.8870    73.3690 c6         1 5P0       0.038700
      2 C2          37.5060    42.5890    73.9180 c          1 5P0       0.709500
      3 C4          38.3730    42.5880    71.6350 ce         1 5P0      -0.017600
      4 C5          37.1500    43.2820    71.1300 c          1 5P0       0.713700
      5 C9          39.2820    42.1470    70.7610 c2         1 5P0      -0.177200
      6 C10         35.2350    41.6260    73.4530 c3         1 5P0      -0.073700
      7 C11         40.5370    41.3750    71.0580 c3         1 5P0       0.200000
      8 C12         40.1530    39.8900    71.1150 c3         1 5P0       0.103400
      9 C14         41.5700    41.6410    69.9620 c3         1 5P0      -0.106100
     10 C16         33.8010    41.9810    73.0710 c3         1 5P0      -0.094100
     11 C17         35.7910    40.4670    72.6260 c3         1 5P0      -0.083400
     12 C18         34.9960    39.1850    72.7930 c3         1 5P0       0.141400
     13 N3          38.5010    42.4640    73.0160 ns         1 5P0      -0.475100
     14 N6          36.1840    43.4620    72.0430 ns         1 5P0      -0.567900
     15 O7          37.0560    43.6700    69.9760 o          1 5P0      -0.623500
     16 O8          37.6810    42.4280    75.1120 o          1 5P0      -0.616500
     17 O13         41.3070    39.1470    71.4340 oh         1 5P0      -0.610800
     18 O15         41.0510    41.7850    72.3160 oh         1 5P0      -0.613800
     19 O19         35.6810    38.1460    72.1270 oh         1 5P0      -0.603800
     20 H1          35.6930    43.6390    74.0310 h1         1 5P0       0.086700
     21 H3          39.0700    42.3280    69.7150 ha         1 5P0       0.166000
     22 H5          35.2420    41.3330    74.5070 hc         1 5P0       0.072700
     23 H6          39.3690    39.7570    71.8700 h1         1 5P0       0.039700
     24 H7          39.7280    39.5930    70.1480 h1         1 5P0       0.039700
     25 H8          42.4940    41.0940    70.1480 hc         1 5P0       0.049367
     26 H9          41.1880    41.3360    68.9870 hc         1 5P0       0.049367
     27 H10         41.8060    42.7040    69.9150 hc         1 5P0       0.049367
     28 H11         33.4610    42.8710    73.6040 hc         1 5P0       0.039367
     29 H12         33.7030    42.1700    72.0010 hc         1 5P0       0.039367
     30 H13         33.1130    41.1760    73.3240 hc         1 5P0       0.039367
     31 H14         36.8230    40.2560    72.9250 hc         1 5P0       0.057200
     32 H15         35.8140    40.7400    71.5660 hc         1 5P0       0.057200
     33 H16         33.9850    39.3100    72.3880 h1         1 5P0       0.019200
     34 H17         34.8830    38.9700    73.8650 h1         1 5P0       0.019200
     35 H18         39.4190    42.1860    73.3490 hn         1 5P0       0.357500
     36 H19         35.3560    43.9460    71.7240 hn         1 5P0       0.325500
     37 H20         41.0360    38.2940    71.7870 ho         1 5P0       0.415000
     38 H21         41.6770    41.1100    72.6090 ho         1 5P0       0.428000
     39 H22         35.1520    37.3470    72.1940 ho         1 5P0       0.406000
@<TRIPOS>BOND
     1     1     2 1   
     2     1     6 1   
     3     1    14 1   
     4     1    20 1   
     5     2    13 1   
     6     2    16 2   
     7     3     4 1   
     8     3     5 2   
     9     3    13 1   
    10     4    14 1   
    11     4    15 2   
    12     5     7 1   
    13     5    21 1   
    14     6    10 1   
    15     6    11 1   
    16     6    22 1   
    17     7     8 1   
    18     7     9 1   
    19     7    18 1   
    20     8    17 1   
    21     8    23 1   
    22     8    24 1   
    23     9    25 1   
    24     9    26 1   
    25     9    27 1   
    26    10    28 1   
    27    10    29 1   
    28    10    30 1   
    29    11    12 1   
    30    11    31 1   
    31    11    32 1   
    32    12    19 1   
    33    12    33 1   
    34    12    34 1   
    35    13    35 1   
    36    14    36 1   
    37    17    37 1   
    38    18    38 1   
    39    19    39 1   
@<TRIPOS>SUBSTRUCTURE
     1 5P0         1 TEMP              0 ****  ****    0 ROOT
