@<TRIPOS>MOLECULE
5P1
   30    32     1     0     0
SMALL
bcc


@<TRIPOS>ATOM
      1 O01         -5.8930    -0.8290    -0.1080 oh         1 5P1      -0.492100
      2 C02         -4.5510    -0.7380    -0.1030 ca         1 5P1       0.153100
      3 C03         -3.8540     0.1570    -0.9110 ca         1 5P1      -0.201500
      4 C04         -2.4710     0.2060    -0.8610 ca         1 5P1      -0.052500
      5 C05         -1.7520    -0.6290    -0.0090 ca         1 5P1      -0.078800
      6 C06         -0.2850    -0.6330     0.0180 cc         1 5P1       0.212400
      7 N07          0.3850    -1.7980    -0.0320 nc         1 5P1      -0.287600
      8 C08          1.6730    -1.4860    -0.0360 cd         1 5P1      -0.027300
      9 C09          2.8020    -2.3200    -0.0940 cd         1 5P1      -0.058000
     10 C10          4.0460    -1.7660    -0.1070 cc         1 5P1      -0.186000
     11 C11          4.1990    -0.3560    -0.0690 cc         1 5P1       0.113100
     12 O12          5.4080     0.2310    -0.0910 oh         1 5P1      -0.482100
     13 C13          3.1000     0.4500    -0.0120 cd         1 5P1      -0.131300
     14 N14          1.8590    -0.1240     0.0130 na         1 5P1       0.092700
     15 C15          0.6010     0.4340     0.0690 cd         1 5P1      -0.324300
     16 C16          0.3960     1.8830     0.2550 c3         1 5P1       0.763100
     17 F17          0.6710     2.5980    -0.8510 f          1 5P1      -0.230633
     18 F18         -0.8580     2.1630     0.6030 f          1 5P1      -0.230633
     19 F19          1.1900     2.3800     1.2200 f          1 5P1      -0.230633
     20 C20         -2.4610    -1.5340     0.7810 ca         1 5P1      -0.052500
     21 C21         -3.8430    -1.5880     0.7460 ca         1 5P1      -0.201500
     22 H1          -6.2720    -0.2040    -0.7370 ho         1 5P1       0.427000
     23 H2          -4.3890     0.8120    -1.5900 ha         1 5P1       0.141000
     24 H3          -1.9530     0.8890    -1.5230 ha         1 5P1       0.140500
     25 H4           2.6590    -3.3900    -0.1290 ha         1 5P1       0.169000
     26 H5           4.9220    -2.4010    -0.1520 ha         1 5P1       0.146000
     27 H6           6.1060    -0.4300    -0.1490 ho         1 5P1       0.437000
     28 H7           3.1800     1.5250     0.0020 h4         1 5P1       0.192000
     29 H8          -1.9250    -2.2030     1.4420 ha         1 5P1       0.140500
     30 H9          -4.3790    -2.2900     1.3720 ha         1 5P1       0.141000
@<TRIPOS>BOND
     1     1     2 1   
     2     1    22 1   
     3     2     3 ar  
     4     2    21 ar  
     5     3     4 ar  
     6     3    23 1   
     7     4     5 ar  
     8     4    24 1   
     9     5     6 1   
    10     5    20 ar  
    11     6     7 1   
    12     6    15 2   
    13     7     8 2   
    14     8     9 1   
    15     8    14 1   
    16     9    10 2   
    17     9    25 1   
    18    10    11 1   
    19    10    26 1   
    20    11    12 1   
    21    11    13 2   
    22    12    27 1   
    23    13    14 1   
    24    13    28 1   
    25    14    15 1   
    26    15    16 1   
    27    16    17 1   
    28    16    18 1   
    29    16    19 1   
    30    20    21 ar  
    31    20    29 1   
    32    21    30 1   
@<TRIPOS>SUBSTRUCTURE
     1 5P1         1 TEMP              0 ****  ****    0 ROOT
