@<TRIPOS>MOLECULE
5P1
   30    32     1     0     0
SMALL
No Charge or Current Charge


@<TRIPOS>ATOM
      1 O01         -5.8800    -0.6620    -0.1210 oh         1 5P1      -0.531100
      2 C02         -4.5190    -0.6660    -0.0910 ca         1 5P1       0.153100
      3 C03         -3.7880     0.1650    -0.9530 ca         1 5P1      -0.183500
      4 C04         -2.3820     0.1530    -0.9170 ca         1 5P1      -0.034500
      5 C05         -1.6980    -0.6750    -0.0020 ca         1 5P1      -0.078800
      6 C06         -0.2360    -0.7340     0.0050 cc         1 5P1       0.212400
      7 N07          0.4600    -1.9190    -0.0610 nc         1 5P1      -0.287600
      8 C08          1.7280    -1.5560    -0.0490 cd         1 5P1      -0.078000
      9 C09          2.8740    -2.3970    -0.1280 cd         1 5P1      -0.040000
     10 C10          4.0890    -1.7460    -0.1320 cc         1 5P1      -0.168000
     11 C11          4.1610    -0.3040    -0.0800 cc         1 5P1       0.113100
     12 O12          5.3860     0.2520    -0.1170 oh         1 5P1      -0.521100
     13 C13          3.0330     0.5020    -0.0060 cd         1 5P1      -0.164000
     14 N14          1.8190    -0.1910     0.0510 na         1 5P1       0.194100
     15 C15          0.5670     0.3890     0.1150 cd         1 5P1      -0.324300
     16 C16          0.2600     1.8610     0.3090 c3         1 5P1       0.399200
     17 F17          0.3940     2.5480    -0.8470 f          1 5P1      -0.109333
     18 F18         -0.9950     2.0810     0.7590 f          1 5P1      -0.109333
     19 F19          1.0820     2.4380     1.2140 f          1 5P1      -0.109333
     20 C20         -2.4410    -1.5310     0.8350 ca         1 5P1      -0.034500
     21 C21         -3.8470    -1.5170     0.7970 ca         1 5P1      -0.183500
     22 H1          -6.1730    -0.0160    -0.7980 ho         1 5P1       0.466000
     23 H2          -4.2990     0.8170    -1.6580 ha         1 5P1       0.123000
     24 H3          -1.8220     0.7860    -1.6030 ha         1 5P1       0.122500
     25 H4           2.7960    -3.4780    -0.1920 ha         1 5P1       0.151000
     26 H5           5.0050    -2.3250    -0.1930 ha         1 5P1       0.128000
     27 H6           6.0390    -0.4780    -0.1710 ho         1 5P1       0.476000
     28 H7           3.0390     1.5820     0.0130 h4         1 5P1       0.174000
     29 H8          -1.9280    -2.2000     1.5230 ha         1 5P1       0.122500
     30 H9          -4.4130    -2.1700     1.4560 ha         1 5P1       0.123000
@<TRIPOS>BOND
     1     1     2 1   
     2     1    22 1   
     3     2     3 ar  
     4     2    21 ar  
     5     3     4 ar  
     6     3    23 1   
     7     4     5 ar  
     8     4    24 1   
     9     5     6 1   
    10     5    20 ar  
    11     6     7 1   
    12     6    15 2   
    13     7     8 2   
    14     8     9 1   
    15     8    14 1   
    16     9    10 2   
    17     9    25 1   
    18    10    11 1   
    19    10    26 1   
    20    11    12 1   
    21    11    13 2   
    22    12    27 1   
    23    13    14 1   
    24    13    28 1   
    25    14    15 1   
    26    15    16 1   
    27    16    17 1   
    28    16    18 1   
    29    16    19 1   
    30    20    21 ar  
    31    20    29 1   
    32    21    30 1   
@<TRIPOS>SUBSTRUCTURE
     1 5P1         1 TEMP              0 ****  ****    0 ROOT
