@<TRIPOS>MOLECULE
5P3
   25    26     1     0     0
SMALL
bcc


@<TRIPOS>ATOM
      1 C1           1.4320     0.8740     0.2170 ca         1 5P3      -0.280600
      2 C2           0.0480     0.9730     0.2200 ca         1 5P3      -0.026000
      3 C3          -0.7720    -0.1200    -0.0420 cp         1 5P3      -0.150000
      4 C4          -0.1590    -1.3450    -0.3160 ca         1 5P3      -0.068000
      5 C5           1.2160    -1.4580    -0.3210 ca         1 5P3      -0.079600
      6 C6           2.0460    -0.3630    -0.0580 ca         1 5P3       0.242100
      7 C7           2.2960     2.0740     0.5170 c          1 5P3       0.937200
      8 O8           3.5500     1.8600     0.4940 o          1 5P3      -0.792300
      9 O9           1.7620     3.1570     0.7590 o          1 5P3      -0.792300
     10 O10          3.3590    -0.4950    -0.0680 oh         1 5P3      -0.572100
     11 CL11         1.9600    -2.9830    -0.6730 cl         1 5P3      -0.149400
     12 C12         -2.2430     0.0000    -0.0340 cp         1 5P3       0.020000
     13 C13         -3.0470    -1.0430     0.4300 ca         1 5P3      -0.132500
     14 C14         -4.4300    -0.9290     0.4350 ca         1 5P3      -0.133500
     15 C15         -5.0390     0.2340    -0.0180 ca         1 5P3      -0.155000
     16 C16         -4.2500     1.2800    -0.4800 ca         1 5P3      -0.133500
     17 C17         -2.8680     1.1630    -0.4900 ca         1 5P3      -0.132500
     18 H2          -0.3910     1.9340     0.4570 ha         1 5P3       0.145000
     19 H4          -0.7580    -2.2170    -0.5450 ha         1 5P3       0.121000
     20 HO10         3.6860     0.4640     0.1650 ho         1 5P3       0.516000
     21 H13         -2.5900    -1.9480     0.8110 ha         1 5P3       0.134500
     22 H14         -5.0310    -1.7500     0.8040 ha         1 5P3       0.116500
     23 H15         -6.1170     0.3240    -0.0120 ha         1 5P3       0.114000
     24 H16         -4.7120     2.1880    -0.8450 ha         1 5P3       0.116500
     25 H17         -2.2710     1.9800    -0.8760 ha         1 5P3       0.134500
@<TRIPOS>BOND
     1     1     2 ar  
     2     1     6 ar  
     3     1     7 1   
     4     2     3 ar  
     5     2    18 1   
     6     3     4 ar  
     7     3    12 1   
     8     4     5 ar  
     9     4    19 1   
    10     5     6 ar  
    11     5    11 1   
    12     6    10 1   
    13     7     8 1   
    14     7     9 1   
    15    10    20 1   
    16    12    13 ar  
    17    12    17 ar  
    18    13    14 ar  
    19    13    21 1   
    20    14    15 ar  
    21    14    22 1   
    22    15    16 ar  
    23    15    23 1   
    24    16    17 ar  
    25    16    24 1   
    26    17    25 1   
@<TRIPOS>SUBSTRUCTURE
     1 5P3         1 TEMP              0 ****  ****    0 ROOT
