@<TRIPOS>MOLECULE
5P3
   25    26     1     0     0
SMALL
No Charge or Current Charge


@<TRIPOS>ATOM
      1 C1           1.4860     0.8850     0.2260 ca         1 5P3      -0.280600
      2 C2           0.0740     0.9850     0.2300 ca         1 5P3      -0.008000
      3 C3          -0.7580    -0.1300    -0.0430 cp         1 5P3      -0.150000
      4 C4          -0.1370    -1.3700    -0.3230 ca         1 5P3      -0.050000
      5 C5           1.2600    -1.4920    -0.3330 ca         1 5P3       0.012000
      6 C6           2.0720    -0.3700    -0.0590 ca         1 5P3       0.242100
      7 C7           2.3270     2.1060     0.5270 c          1 5P3       0.726600
      8 O8           3.5440     1.9810     0.5190 o          1 5P3      -0.687000
      9 O9           1.7630     3.1620     0.7620 o          1 5P3      -0.687000
     10 O10          3.4300    -0.4970    -0.0700 oh         1 5P3      -0.611100
     11 Cl11         1.9690    -3.0710    -0.6970 cl         1 5P3      -0.241000
     12 C12         -2.2500    -0.0010    -0.0340 cp         1 5P3       0.020000
     13 C13         -3.0730    -1.0550     0.4390 ca         1 5P3      -0.114500
     14 C14         -4.4740    -0.9350     0.4480 ca         1 5P3      -0.115500
     15 C15         -5.0820     0.2410    -0.0170 ca         1 5P3      -0.137000
     16 C16         -4.2880     1.2980    -0.4910 ca         1 5P3      -0.115500
     17 C17         -2.8880     1.1780    -0.4990 ca         1 5P3      -0.114500
     18 H2          -0.3940     1.9390     0.4620 ha         1 5P3       0.127000
     19 H4          -0.7430    -2.2430    -0.5500 ha         1 5P3       0.103000
     20 HO10         3.7610     0.4210     0.1520 ho         1 5P3       0.555000
     21 H13         -2.6210    -1.9690     0.8150 ha         1 5P3       0.116500
     22 H14         -5.0870    -1.7540     0.8180 ha         1 5P3       0.098500
     23 H15         -6.1650     0.3340    -0.0110 ha         1 5P3       0.096000
     24 H16         -4.7570     2.2090    -0.8560 ha         1 5P3       0.098500
     25 H17         -2.2920     2.0020    -0.8830 ha         1 5P3       0.116500
@<TRIPOS>BOND
     1     1     2 ar  
     2     1     6 ar  
     3     1     7 1   
     4     2     3 ar  
     5     2    18 1   
     6     3     4 ar  
     7     3    12 1   
     8     4     5 ar  
     9     4    19 1   
    10     5     6 ar  
    11     5    11 1   
    12     6    10 1   
    13     7     8 1   
    14     7     9 1   
    15    10    20 1   
    16    12    13 ar  
    17    12    17 ar  
    18    13    14 ar  
    19    13    21 1   
    20    14    15 ar  
    21    14    22 1   
    22    15    16 ar  
    23    15    23 1   
    24    16    17 ar  
    25    16    24 1   
    26    17    25 1   
@<TRIPOS>SUBSTRUCTURE
     1 5P3         1 TEMP              0 ****  ****    0 ROOT
