@<TRIPOS>MOLECULE
5P4
   50    52     1     0     0
SMALL
abcg2


@<TRIPOS>ATOM
      1 O3           1.5530    23.4340    48.9110 o          1 5P4      -0.546000
      2 C4           2.6500    21.1600    51.5050 c6         1 5P4       0.181000
      3 C5           1.8230    20.0380    52.1390 c6         1 5P4      -0.101400
      4 C6           2.6870    19.1140    53.0160 c6         1 5P4       0.118700
      5 N1           3.9390    19.7940    53.4400 n          1 5P4      -0.244400
      6 C7           1.9150    18.5960    54.2240 c3         1 5P4      -0.102100
      7 C8           5.0730    19.0400    53.5560 c          1 5P4       0.606100
      8 C9           6.3950    19.7420    53.7600 c3         1 5P4      -0.170100
      9 C10          3.8830    21.1950    53.6390 ca         1 5P4      -0.026000
     10 C11          4.3800    21.8230    54.7760 ca         1 5P4      -0.129000
     11 C12          4.3040    23.2030    54.8990 ca         1 5P4      -0.073000
     12 C13          3.6960    23.9740    53.9020 ca         1 5P4      -0.127500
     13 C14          3.1540    23.3220    52.7840 ca         1 5P4      -0.064000
     14 C15          3.2500    21.9520    52.6450 ca         1 5P4      -0.122300
     15 C3           2.2780    22.7380    49.6080 c          1 5P4       0.640100
     16 O            3.6150    22.6720    49.4900 os         1 5P4      -0.468100
     17 C1           4.2550    23.4820    48.4590 c3         1 5P4       0.190300
     18 C2           5.6320    23.8210    48.9940 c3         1 5P4      -0.105100
     19 C            4.2850    22.7040    47.1570 c3         1 5P4      -0.105100
     20 N            1.8250    21.9380    50.6010 ns         1 5P4      -0.501900
     21 O1           5.0300    17.8120    53.4620 o          1 5P4      -0.600100
     22 C16          3.6090    25.4200    54.0070 cc         1 5P4       0.184500
     23 O2           4.1160    26.0080    55.1380 os         1 5P4      -0.255000
     24 C19          3.9350    27.3540    55.0210 cc         1 5P4       0.132900
     25 C18          3.3250    27.6420    53.8430 cd         1 5P4      -0.183000
     26 C17          3.1130    26.3920    53.1840 cd         1 5P4      -0.163000
     27 H1           3.4600    20.7140    50.9240 h1         1 5P4       0.089700
     28 H2           1.0340    20.4980    52.7410 hc         1 5P4       0.058700
     29 H3           1.3420    19.4400    51.3650 hc         1 5P4       0.058700
     30 H4           3.0180    18.2710    52.4130 h1         1 5P4       0.081700
     31 H5           2.5120    17.8820    54.7900 hc         1 5P4       0.047367
     32 H6           1.6400    19.4260    54.8800 hc         1 5P4       0.047367
     33 H7           0.9980    18.1020    53.8970 hc         1 5P4       0.047367
     34 H8           7.1640    19.1230    53.3030 hc         1 5P4       0.065700
     35 H9           6.4180    20.7410    53.3320 hc         1 5P4       0.065700
     36 H10          6.6150    19.8210    54.8260 hc         1 5P4       0.065700
     37 H11          4.8260    21.2350    55.5660 ha         1 5P4       0.124000
     38 H12          4.7080    23.6820    55.7790 ha         1 5P4       0.130000
     39 H13          2.6540    23.8990    52.0190 ha         1 5P4       0.124000
     40 H14          3.6600    24.3870    48.3420 h1         1 5P4       0.067700
     41 H15          5.5560    24.3590    49.9400 hc         1 5P4       0.048533
     42 H16          6.2190    22.9130    49.1500 hc         1 5P4       0.048533
     43 H17          6.1580    24.4520    48.2760 hc         1 5P4       0.048533
     44 H18          3.2750    22.4560    46.8280 hc         1 5P4       0.048533
     45 H19          4.7610    23.3050    46.3800 hc         1 5P4       0.048533
     46 H20          4.8550    21.7810    47.2780 hc         1 5P4       0.048533
     47 H21          0.8400    22.0200    50.8040 hn         1 5P4       0.331500
     48 H22          4.2880    27.9520    55.8430 h4         1 5P4       0.053100
     49 H23          3.0580    28.6220    53.4840 ha         1 5P4       0.144000
     50 H24          2.6540    26.2400    52.2220 ha         1 5P4       0.144000
@<TRIPOS>BOND
     1     1    15 2   
     2     2     3 1   
     3     2    14 1   
     4     2    20 1   
     5     2    27 1   
     6     3     4 1   
     7     3    28 1   
     8     3    29 1   
     9     4     5 1   
    10     4     6 1   
    11     4    30 1   
    12     5     7 1   
    13     5     9 1   
    14     6    31 1   
    15     6    32 1   
    16     6    33 1   
    17     7     8 1   
    18     7    21 2   
    19     8    34 1   
    20     8    35 1   
    21     8    36 1   
    22     9    10 ar  
    23     9    14 ar  
    24    10    11 ar  
    25    10    37 1   
    26    11    12 ar  
    27    11    38 1   
    28    12    13 ar  
    29    12    22 1   
    30    13    14 ar  
    31    13    39 1   
    32    15    16 1   
    33    15    20 1   
    34    16    17 1   
    35    17    18 1   
    36    17    19 1   
    37    17    40 1   
    38    18    41 1   
    39    18    42 1   
    40    18    43 1   
    41    19    44 1   
    42    19    45 1   
    43    19    46 1   
    44    20    47 1   
    45    22    23 1   
    46    22    26 2   
    47    23    24 1   
    48    24    25 2   
    49    24    48 1   
    50    25    26 1   
    51    25    49 1   
    52    26    50 1   
@<TRIPOS>SUBSTRUCTURE
     1 5P4         1 TEMP              0 ****  ****    0 ROOT
