@<TRIPOS>MOLECULE
5P4
   50    52     1     0     0
SMALL
No Charge or Current Charge


@<TRIPOS>ATOM
      1 O3           1.3510    23.4140    49.0020 o          1 5P4      -0.546000
      2 C4           2.6300    21.0990    51.5190 c6         1 5P4       0.181000
      3 C5           1.8380    19.9200    52.1210 c6         1 5P4      -0.101400
      4 C6           2.7580    18.9840    52.9590 c6         1 5P4       0.118700
      5 N1           3.8870    19.7170    53.6140 n          1 5P4      -0.244400
      6 C7           1.9010    18.2020    53.9920 c3         1 5P4      -0.102100
      7 C8           5.0960    19.0030    53.8630 c          1 5P4       0.606100
      8 C9           6.4050    19.7650    54.1000 c3         1 5P4      -0.170100
      9 C10          3.7250    21.1450    53.7890 ca         1 5P4      -0.026000
     10 C11          4.2910    21.8270    54.8840 ca         1 5P4      -0.129000
     11 C12          4.2930    23.2290    54.9350 ca         1 5P4      -0.073000
     12 C13          3.7640    23.9850    53.8720 ca         1 5P4      -0.127500
     13 C14          3.2240    23.3060    52.7610 ca         1 5P4      -0.064000
     14 C15          3.2190    21.8930    52.7030 ca         1 5P4      -0.122300
     15 C3           2.1430    22.7580    49.6560 c          1 5P4       0.640100
     16 O            3.5050    22.8270    49.5650 os         1 5P4      -0.468100
     17 C1           4.0990    23.7020    48.5920 c3         1 5P4       0.190300
     18 C2           5.5490    23.9440    49.0510 c3         1 5P4      -0.105100
     19 C            4.0240    23.0230    47.2070 c3         1 5P4      -0.105100
     20 N            1.7520    21.8930    50.6440 ns         1 5P4      -0.501900
     21 O1           5.1290    17.7780    53.8150 o          1 5P4      -0.600100
     22 C16          3.7840    25.4510    53.9370 cc         1 5P4       0.184500
     23 O2           4.0670    26.1380    55.0940 os         1 5P4      -0.255000
     24 C19          4.0110    27.4750    54.7640 cc         1 5P4       0.132900
     25 C18          3.7120    27.6090    53.4320 cd         1 5P4      -0.183000
     26 C17          3.5690    26.3110    52.8950 cd         1 5P4      -0.163000
     27 H1           3.4580    20.6970    50.9140 h1         1 5P4       0.089700
     28 H2           1.0340    20.3230    52.7530 hc         1 5P4       0.058700
     29 H3           1.3500    19.3390    51.3270 hc         1 5P4       0.058700
     30 H4           3.1910    18.2520    52.2610 h1         1 5P4       0.081700
     31 H5           2.5050    17.4680    54.5380 hc         1 5P4       0.047367
     32 H6           1.4540    18.8780    54.7300 hc         1 5P4       0.047367
     33 H7           1.0880    17.6570    53.4990 hc         1 5P4       0.047367
     34 H8           7.2780    19.1540    53.8470 hc         1 5P4       0.065700
     35 H9           6.4050    20.7200    53.5650 hc         1 5P4       0.065700
     36 H10          6.4670    20.0360    55.1590 hc         1 5P4       0.065700
     37 H11          4.7030    21.2740    55.7230 ha         1 5P4       0.124000
     38 H12          4.7200    23.7270    55.8030 ha         1 5P4       0.130000
     39 H13          2.8040    23.8830    51.9460 ha         1 5P4       0.124000
     40 H14          3.5810    24.6710    48.5590 h1         1 5P4       0.067700
     41 H15          5.5620    24.4130    50.0430 hc         1 5P4       0.048533
     42 H16          6.1040    23.0000    49.1060 hc         1 5P4       0.048533
     43 H17          6.0670    24.6110    48.3520 hc         1 5P4       0.048533
     44 H18          2.9850    22.9020    46.8820 hc         1 5P4       0.048533
     45 H19          4.5410    23.6310    46.4550 hc         1 5P4       0.048533
     46 H20          4.4970    22.0340    47.2330 hc         1 5P4       0.048533
     47 H21          0.7530    21.8180    50.7800 hn         1 5P4       0.331500
     48 H22          4.2020    28.2010    55.5430 h4         1 5P4       0.053100
     49 H23          3.6110    28.5470    52.8950 ha         1 5P4       0.144000
     50 H24          3.3440    26.0570    51.8650 ha         1 5P4       0.144000
@<TRIPOS>BOND
     1     1    15 2   
     2     2     3 1   
     3     2    14 1   
     4     2    20 1   
     5     2    27 1   
     6     3     4 1   
     7     3    28 1   
     8     3    29 1   
     9     4     5 1   
    10     4     6 1   
    11     4    30 1   
    12     5     7 1   
    13     5     9 1   
    14     6    31 1   
    15     6    32 1   
    16     6    33 1   
    17     7     8 1   
    18     7    21 2   
    19     8    34 1   
    20     8    35 1   
    21     8    36 1   
    22     9    10 ar  
    23     9    14 ar  
    24    10    11 ar  
    25    10    37 1   
    26    11    12 ar  
    27    11    38 1   
    28    12    13 ar  
    29    12    22 1   
    30    13    14 ar  
    31    13    39 1   
    32    15    16 1   
    33    15    20 1   
    34    16    17 1   
    35    17    18 1   
    36    17    19 1   
    37    17    40 1   
    38    18    41 1   
    39    18    42 1   
    40    18    43 1   
    41    19    44 1   
    42    19    45 1   
    43    19    46 1   
    44    20    47 1   
    45    22    23 1   
    46    22    26 2   
    47    23    24 1   
    48    24    25 2   
    49    24    48 1   
    50    25    26 1   
    51    25    49 1   
    52    26    50 1   
@<TRIPOS>SUBSTRUCTURE
     1 5P4         1 TEMP              0 ****  ****    0 ROOT
