@<TRIPOS>MOLECULE
5P6
   44    46     1     0     0
SMALL
abcg2


@<TRIPOS>ATOM
      1 C13        -36.7360    19.5090    -0.9400 cp         1 5P6      -0.001000
      2 C18        -35.6510    16.5700     6.8470 c3         1 5P6      -0.073400
      3 C17        -38.0650    15.9640     7.3580 c3         1 5P6      -0.088100
      4 C16        -37.1370    18.1860     8.0370 c3         1 5P6      -0.088100
      5 C15        -35.8540    16.0720     4.4120 ca         1 5P6       0.363300
      6 C19        -35.4120    15.5270     5.7510 c3         1 5P6       0.119200
      7 C11        -36.6980    17.1420     2.0010 ca         1 5P6      -0.060000
      8 C12        -36.3510    18.8450     0.3200 cp         1 5P6      -0.029000
      9 C2         -35.2420    19.3230     1.0620 ca         1 5P6      -0.091000
     10 C3         -34.8780    18.7390     2.2400 ca         1 5P6      -0.075000
     11 C4         -38.0730    19.6830    -1.2910 ca         1 5P6      -0.153500
     12 C5         -35.7780    19.9950    -1.8280 ca         1 5P6      -0.153500
     13 C6         -36.9570    15.4910     3.7450 ca         1 5P6      -0.120000
     14 C7         -37.0590    17.7660     0.7920 ca         1 5P6      -0.079000
     15 C8         -38.3800    20.3160    -2.4840 ca         1 5P6       0.335400
     16 C9         -36.1930    20.6100    -2.9980 ca         1 5P6       0.335400
     17 C10        -37.3730    16.0230     2.5530 ca         1 5P6       0.033000
     18 C14        -35.5970    17.6330     2.7460 ca         1 5P6       0.273000
     19 N21        -39.3820    14.9710     1.3230 n1         1 5P6      -0.437000
     20 N22        -37.4670    20.7760    -3.3320 nb         1 5P6      -0.659000
     21 N23        -35.2080    17.0960     3.9200 nb         1 5P6      -0.620000
     22 N24        -33.9920    15.2050     5.7020 n8         1 5P6      -0.980200
     23 H39        -35.3330    16.1350     7.8020 hc         1 5P6       0.056700
     24 H40        -34.9860    17.4150     6.6480 hc         1 5P6       0.056700
     25 H36        -39.0720    16.3620     7.4910 hc         1 5P6       0.032867
     26 H37        -38.1260    15.1860     6.5950 hc         1 5P6       0.032867
     27 H38        -37.7720    15.4850     8.2950 hc         1 5P6       0.032867
     28 H33        -38.1440    18.5950     8.1310 hc         1 5P6       0.032867
     29 H34        -36.8410    17.8080     9.0190 hc         1 5P6       0.032867
     30 H35        -36.4660    19.0070     7.7800 hc         1 5P6       0.032867
     31 H41        -36.0290    14.6440     5.9680 h1         1 5P6       0.022700
     32 H42        -37.4030    17.5110     6.0360 hc         1 5P6       0.049700
     33 H25        -34.6900    20.1810     0.7010 ha         1 5P6       0.124000
     34 H26        -34.0400    19.1140     2.8130 ha         1 5P6       0.140000
     35 H27        -38.8720    19.3530    -0.6400 ha         1 5P6       0.126500
     36 H28        -34.7190    19.8840    -1.6320 ha         1 5P6       0.126500
     37 H29        -37.4630    14.6370     4.1760 ha         1 5P6       0.133000
     38 H30        -37.8960    17.3780     0.2230 ha         1 5P6       0.128000
     39 H31        -39.4180    20.4630    -2.7620 h4         1 5P6       0.020600
     40 H32        -35.4540    20.9850    -3.6980 h4         1 5P6       0.020600
     41 H1         -33.7020    14.8800     6.6170 hn         1 5P6       0.397000
     42 H43        -33.8430    14.4250     5.0740 hn         1 5P6       0.397000
     43 C20        -37.0870    17.0760     6.9920 c3         1 5P6      -0.061700
     44 C1         -38.4860    15.4420     1.8730 cg         1 5P6       0.317000
@<TRIPOS>BOND
     1     1     8 1   
     2     1    11 ar  
     3     1    12 ar  
     4     2     6 1   
     5     2    23 1   
     6     2    24 1   
     7     2    43 1   
     8     3    25 1   
     9     3    26 1   
    10     3    27 1   
    11     3    43 1   
    12     4    28 1   
    13     4    29 1   
    14     4    30 1   
    15     4    43 1   
    16     5     6 1   
    17     5    13 ar  
    18     5    21 ar  
    19     6    22 1   
    20     6    31 1   
    21     7    14 ar  
    22     7    17 ar  
    23     7    18 ar  
    24     8     9 ar  
    25     8    14 ar  
    26     9    10 ar  
    27     9    33 1   
    28    10    18 ar  
    29    10    34 1   
    30    11    15 ar  
    31    11    35 1   
    32    12    16 ar  
    33    12    36 1   
    34    13    17 ar  
    35    13    37 1   
    36    14    38 1   
    37    15    20 ar  
    38    15    39 1   
    39    16    20 ar  
    40    16    40 1   
    41    17    44 1   
    42    18    21 ar  
    43    19    44 3   
    44    22    41 1   
    45    22    42 1   
    46    32    43 1   
@<TRIPOS>SUBSTRUCTURE
     1 5P6         1 TEMP              0 ****  ****    0 ROOT
