@<TRIPOS>MOLECULE
5P6
   44    46     1     0     0
SMALL
No Charge or Current Charge


@<TRIPOS>ATOM
      1 C13        -36.7520    19.5480    -1.0260 cp         1 5P6      -0.001000
      2 C18        -35.5810    16.5120     6.9460 c3         1 5P6      -0.073400
      3 C17        -38.0880    16.0690     7.4120 c3         1 5P6      -0.088100
      4 C16        -36.9880    18.2110     8.2340 c3         1 5P6      -0.088100
      5 C15        -35.8980    16.0720     4.4130 ca         1 5P6       0.363300
      6 C19        -35.4400    15.4920     5.7810 c3         1 5P6       0.119200
      7 C11        -36.6900    17.1530     1.9850 ca         1 5P6      -0.060000
      8 C12        -36.3710    18.9120     0.2760 cp         1 5P6      -0.029000
      9 C2         -35.3270    19.4420     1.0670 ca         1 5P6      -0.091000
     10 C3         -34.9720    18.8470     2.2880 ca         1 5P6      -0.075000
     11 C4         -38.0890    19.5620    -1.4920 ca         1 5P6      -0.153500
     12 C5         -35.7960    20.1710    -1.8630 ca         1 5P6      -0.153500
     13 C6         -36.9430    15.4610     3.7030 ca         1 5P6      -0.120000
     14 C7         -37.0430    17.7610     0.7540 ca         1 5P6      -0.079000
     15 C8         -38.4030    20.1710    -2.7180 ca         1 5P6       0.335400
     16 C9         -36.1940    20.7550    -3.0770 ca         1 5P6       0.335400
     17 C10        -37.3550    15.9990     2.4720 ca         1 5P6       0.033000
     18 C14        -35.6390    17.7050     2.7630 ca         1 5P6       0.273000
     19 N21        -39.3100    14.8340     1.1960 n1         1 5P6      -0.437000
     20 N22        -37.4760    20.7600    -3.5070 nb         1 5P6      -0.659000
     21 N23        -35.2590    17.1720     3.9450 nb         1 5P6      -0.620000
     22 N24        -34.0590    14.9240     5.7760 n8         1 5P6      -0.980200
     23 H39        -35.2890    16.0230     7.8840 hc         1 5P6       0.056700
     24 H40        -34.8620    17.3250     6.7860 hc         1 5P6       0.056700
     25 H36        -39.0610    16.5480     7.5730 hc         1 5P6       0.032867
     26 H37        -38.1990    15.3770     6.5690 hc         1 5P6       0.032867
     27 H38        -37.8420    15.4860     8.3080 hc         1 5P6       0.032867
     28 H33        -37.9730    18.6860     8.3230 hc         1 5P6       0.032867
     29 H34        -36.7290    17.7740     9.2060 hc         1 5P6       0.032867
     30 H35        -36.2570    18.9950     8.0050 hc         1 5P6       0.032867
     31 H41        -36.0990    14.6460     6.0140 h1         1 5P6       0.022700
     32 H42        -37.2720    17.6400     6.1960 hc         1 5P6       0.049700
     33 H25        -34.7940    20.3330     0.7430 ha         1 5P6       0.124000
     34 H26        -34.1680    19.2780     2.8790 ha         1 5P6       0.140000
     35 H27        -38.8880    19.1200    -0.9050 ha         1 5P6       0.126500
     36 H28        -34.7460    20.1930    -1.5890 ha         1 5P6       0.126500
     37 H29        -37.4290    14.5780     4.1100 ha         1 5P6       0.133000
     38 H30        -37.8350    17.3390     0.1420 ha         1 5P6       0.128000
     39 H31        -39.4300    20.1890    -3.0800 h4         1 5P6       0.020600
     40 H32        -35.4620    21.2320    -3.7280 h4         1 5P6       0.020600
     41 H1         -33.8750    14.4720     6.6790 hn         1 5P6       0.397000
     42 H43        -34.0100    14.1500     5.1030 hn         1 5P6       0.397000
     43 C20        -36.9980    17.1310     7.1290 c3         1 5P6      -0.061700
     44 C1         -38.4340    15.3590     1.7630 cg         1 5P6       0.317000
@<TRIPOS>BOND
     1     1     8 1   
     2     1    11 ar  
     3     1    12 ar  
     4     2     6 1   
     5     2    23 1   
     6     2    24 1   
     7     2    43 1   
     8     3    25 1   
     9     3    26 1   
    10     3    27 1   
    11     3    43 1   
    12     4    28 1   
    13     4    29 1   
    14     4    30 1   
    15     4    43 1   
    16     5     6 1   
    17     5    13 ar  
    18     5    21 ar  
    19     6    22 1   
    20     6    31 1   
    21     7    14 ar  
    22     7    17 ar  
    23     7    18 ar  
    24     8     9 ar  
    25     8    14 ar  
    26     9    10 ar  
    27     9    33 1   
    28    10    18 ar  
    29    10    34 1   
    30    11    15 ar  
    31    11    35 1   
    32    12    16 ar  
    33    12    36 1   
    34    13    17 ar  
    35    13    37 1   
    36    14    38 1   
    37    15    20 ar  
    38    15    39 1   
    39    16    20 ar  
    40    16    40 1   
    41    17    44 1   
    42    18    21 ar  
    43    19    44 3   
    44    22    41 1   
    45    22    42 1   
    46    32    43 1   
@<TRIPOS>SUBSTRUCTURE
     1 5P6         1 TEMP              0 ****  ****    0 ROOT
