@<TRIPOS>MOLECULE
5P7
   37    39     1     0     0
SMALL
No Charge or Current Charge


@<TRIPOS>ATOM
      1 O2          -0.4560     0.9730    -1.5430 oh         1 5P7      -0.637000
      2 C1          -1.3080     0.0020    -0.9090 c5         1 5P7       0.103300
      3 C2          -2.8280     0.3000    -1.1550 c5         1 5P7       0.141300
      4 O1          -3.0290     1.7030    -1.3100 oh         1 5P7      -0.650000
      5 C3          -3.5560    -0.2360     0.1350 c5         1 5P7      -0.067700
      6 C5          -4.7930    -1.1140    -0.1650 c3         1 5P7       0.167600
      7 O           -5.4210    -1.5250     1.0540 oh         1 5P7      -0.657000
      8 C4          -2.4280    -0.9470     0.9450 c5         1 5P7      -0.078400
      9 C           -1.2420    -0.0000     0.6530 c5         1 5P7       0.230500
     10 N           -0.0290    -0.7880     1.0410 nu         1 5P7      -0.913100
     11 C6           1.1240    -0.0020     1.0600 ca         1 5P7       0.416900
     12 C9           2.2260    -0.2650     0.2110 ca         1 5P7      -0.179000
     13 C10          2.2400    -1.3280    -0.7220 ca         1 5P7      -0.073000
     14 C11          3.3630    -1.5310    -1.5410 ca         1 5P7      -0.129000
     15 C12          4.4740    -0.6810    -1.4360 ca         1 5P7      -0.084000
     16 C13          4.4630     0.3770    -0.5120 ca         1 5P7      -0.098000
     17 C8           3.3470     0.5970     0.3160 ca         1 5P7       0.053000
     18 N2           3.3440     1.6190     1.1970 nb         1 5P7      -0.216000
     19 C7           2.2440     1.7790     1.9580 ca         1 5P7       0.173900
     20 N1           1.1340     1.0200     1.9340 nb         1 5P7      -0.281000
     21 H2           0.4700     0.6880    -1.3720 ho         1 5P7       0.443000
     22 H1          -1.0740    -0.9980    -1.3020 h1         1 5P7       0.031700
     23 HA          -3.1680    -0.2300    -2.0560 h1         1 5P7       0.036700
     24 H           -1.3610     0.9940     1.1150 h1         1 5P7       0.121700
     25 HB          -2.1410     2.0290    -1.5950 ho         1 5P7       0.459000
     26 H3          -3.9350     0.6120     0.7190 hc         1 5P7       0.092700
     27 H51C        -5.4980    -0.5380    -0.7790 h1         1 5P7       0.017200
     28 H52C        -4.4790    -1.9910    -0.7470 h1         1 5P7       0.017200
     29 H41C        -2.6570    -1.0110     2.0150 hc         1 5P7       0.059200
     30 H42C        -2.2570    -1.9700     0.5830 hc         1 5P7       0.059200
     31 HC          -6.1990    -2.0730     0.8040 ho         1 5P7       0.445000
     32 HD           0.1120    -1.7050     0.6220 hn         1 5P7       0.486000
     33 H10          1.3930    -2.0020    -0.8270 ha         1 5P7       0.101000
     34 H11          3.3710    -2.3500    -2.2570 ha         1 5P7       0.114000
     35 H12          5.3430    -0.8400    -2.0710 ha         1 5P7       0.116000
     36 H13          5.3280     1.0330    -0.4390 ha         1 5P7       0.134000
     37 H7           2.2550     2.6070     2.6650 h5         1 5P7       0.043100
@<TRIPOS>BOND
     1     1     2 1   
     2     1    21 1   
     3     2     3 1   
     4     2     9 1   
     5     2    22 1   
     6     3     4 1   
     7     3     5 1   
     8     3    23 1   
     9     4    25 1   
    10     5     6 1   
    11     5     8 1   
    12     5    26 1   
    13     6     7 1   
    14     6    27 1   
    15     6    28 1   
    16     7    31 1   
    17     8     9 1   
    18     8    29 1   
    19     8    30 1   
    20     9    10 1   
    21     9    24 1   
    22    10    11 1   
    23    10    32 1   
    24    11    12 ar  
    25    11    20 ar  
    26    12    13 ar  
    27    12    17 ar  
    28    13    14 ar  
    29    13    33 1   
    30    14    15 ar  
    31    14    34 1   
    32    15    16 ar  
    33    15    35 1   
    34    16    17 ar  
    35    16    36 1   
    36    17    18 ar  
    37    18    19 ar  
    38    19    20 ar  
    39    19    37 1   
@<TRIPOS>SUBSTRUCTURE
     1 5P7         1 TEMP              0 ****  ****    0 ROOT
