@<TRIPOS>MOLECULE
5P7
   37    39     1     0     0
SMALL
bcc


@<TRIPOS>ATOM
      1 O2          -1.3550     1.7160    -1.6540 oh         1 5P7      -0.574800
      2 C1          -1.9760     0.6100    -1.0580 c5         1 5P7       0.080100
      3 C2          -3.4170     0.8530    -0.6020 c5         1 5P7       0.118100
      4 O1          -3.5240     2.0830     0.0780 oh         1 5P7      -0.587800
      5 C3          -3.6780    -0.2900     0.3910 c5         1 5P7      -0.067700
      6 C5          -4.4800    -1.4020    -0.2650 c3         1 5P7       0.144400
      7 O           -4.6600    -2.4420     0.6680 oh         1 5P7      -0.594800
      8 C4          -2.2830    -0.7640     0.8660 c5         1 5P7      -0.078400
      9 C           -1.2840     0.2140     0.2420 c5         1 5P7       0.230500
     10 N            0.0240    -0.3590     0.0490 nu         1 5P7      -0.857900
     11 C6           1.1850     0.2460     0.3210 ca         1 5P7       0.745200
     12 C9           2.4390    -0.4050     0.0220 ca         1 5P7      -0.309600
     13 C10          2.5600    -1.6740    -0.5720 ca         1 5P7      -0.091000
     14 C11          3.7990    -2.2120    -0.8170 ca         1 5P7      -0.147000
     15 C12          4.9570    -1.4960    -0.4730 ca         1 5P7      -0.102000
     16 C13          4.8620    -0.2570     0.1070 ca         1 5P7      -0.181300
     17 C8           3.6010     0.3150     0.3680 ca         1 5P7       0.446600
     18 N2           3.5430     1.5460     0.9490 nb         1 5P7      -0.742000
     19 C7           2.3470     2.0130     1.1650 ca         1 5P7       0.699900
     20 N1           1.1710     1.4410     0.8860 nb         1 5P7      -0.807000
     21 H2          -1.6430     1.7750    -2.5700 ho         1 5P7       0.404000
     22 H1          -1.9700    -0.2620    -1.7300 h1         1 5P7       0.031700
     23 HA          -4.1130     0.8220    -1.4530 h1         1 5P7       0.036700
     24 H           -1.1690     1.0950     0.8710 h1         1 5P7       0.121700
     25 HB          -3.0850     2.7510    -0.4610 ho         1 5P7       0.420000
     26 H3          -4.2610     0.0990     1.2300 hc         1 5P7       0.092700
     27 H51C        -5.4420    -0.9960    -0.6050 h1         1 5P7       0.017200
     28 H52C        -3.9490    -1.7530    -1.1610 h1         1 5P7       0.017200
     29 H41C        -2.1940    -0.7970     1.9500 hc         1 5P7       0.059200
     30 H42C        -2.0810    -1.7760     0.5020 hc         1 5P7       0.059200
     31 HC          -5.1320    -3.1580     0.2340 ho         1 5P7       0.406000
     32 HD           0.0480    -1.2570    -0.4050 hn         1 5P7       0.430800
     33 H10          1.6860    -2.2510    -0.8480 ha         1 5P7       0.119000
     34 H11          3.8840    -3.1880    -1.2750 ha         1 5P7       0.132000
     35 H12          5.9300    -1.9270    -0.6670 ha         1 5P7       0.134000
     36 H13          5.7480     0.3050     0.3750 ha         1 5P7       0.152000
     37 H7           2.2830     2.9920     1.6320 h5         1 5P7       0.043100
@<TRIPOS>BOND
     1     1     2 1   
     2     1    21 1   
     3     2     3 1   
     4     2     9 1   
     5     2    22 1   
     6     3     4 1   
     7     3     5 1   
     8     3    23 1   
     9     4    25 1   
    10     5     6 1   
    11     5     8 1   
    12     5    26 1   
    13     6     7 1   
    14     6    27 1   
    15     6    28 1   
    16     7    31 1   
    17     8     9 1   
    18     8    29 1   
    19     8    30 1   
    20     9    10 1   
    21     9    24 1   
    22    10    11 1   
    23    10    32 1   
    24    11    12 ar  
    25    11    20 ar  
    26    12    13 ar  
    27    12    17 ar  
    28    13    14 ar  
    29    13    33 1   
    30    14    15 ar  
    31    14    34 1   
    32    15    16 ar  
    33    15    35 1   
    34    16    17 ar  
    35    16    36 1   
    36    17    18 ar  
    37    18    19 ar  
    38    19    20 ar  
    39    19    37 1   
@<TRIPOS>SUBSTRUCTURE
     1 5P7         1 TEMP              0 ****  ****    0 ROOT
