@<TRIPOS>MOLECULE
5P8
   49    52     1     0     0
SMALL
No Charge or Current Charge


@<TRIPOS>ATOM
      1 C23         26.4740    48.0730     7.6070 cg         1 5P8       0.340000
      2 C12         34.1300    46.7970     8.8370 ca         1 5P8      -0.069000
      3 C13         34.5180    46.6270    10.1750 ca         1 5P8      -0.144000
      4 C6          29.9700    45.3570     8.3080 ca         1 5P8      -0.103000
      5 C15         33.4490    44.4460    10.2030 ca         1 5P8      -0.129000
      6 C4          28.0630    46.1080     9.5890 ca         1 5P8       0.381900
      7 C19         27.8570    48.3160     7.3670 cc         1 5P8      -0.090000
      8 C5          28.9870    46.3360     8.5380 ca         1 5P8      -0.105000
      9 C18         28.9540    47.5510     7.6870 cd         1 5P8      -0.043000
     10 C11         33.3950    45.7930     8.1660 ca         1 5P8      -0.140600
     11 C10         33.0540    44.5920     8.8540 ca         1 5P8      -0.053300
     12 C1          30.0440    44.2370     9.1560 ca         1 5P8       0.019100
     13 C14         34.1750    45.4530    10.8530 ca         1 5P8       0.179000
     14 C22         30.0820    48.2850     7.2000 cd         1 5P8       0.219300
     15 C2          29.0670    44.1380    10.1800 ca         1 5P8       0.599900
     16 C27         33.0050    46.0320     6.7250 c          1 5P8       0.608700
     17 C28         31.5590    48.0070     7.4520 c3         1 5P8       0.083700
     18 C8          32.2110    43.4720     8.2090 c3         1 5P8       0.217600
     19 C9          32.9620    42.1280     8.1540 c3         1 5P8      -0.085100
     20 N24         25.3360    47.9000     7.7970 n1         1 5P8      -0.424000
     21 N3          28.0980    45.0220    10.4000 nb         1 5P8      -0.730000
     22 N21         29.7400    49.3900     6.5600 nc         1 5P8      -0.493800
     23 N20         28.3680    49.3900     6.6460 na         1 5P8       0.154800
     24 N26         32.2870    47.2150     6.4100 n          1 5P8      -0.411800
     25 N17         28.9850    43.1250    11.0580 nv         1 5P8      -1.054900
     26 O30         33.3570    45.2540     5.8470 o          1 5P8      -0.599100
     27 O7          31.0210    43.2570     9.0020 os         1 5P8      -0.362100
     28 F16         34.5410    45.2910    12.1430 f          1 5P8      -0.176000
     29 H1          34.4060    47.7110     8.3150 ha         1 5P8       0.124000
     30 H2          35.0830    47.4030    10.6850 ha         1 5P8       0.138000
     31 H3          30.6220    45.4530     7.4540 ha         1 5P8       0.130000
     32 H4          33.1800    43.5530    10.7600 ha         1 5P8       0.145000
     33 H5          27.2900    46.8360     9.8250 h4         1 5P8       0.023100
     34 H6          31.6260    47.5160     8.4290 h1         1 5P8       0.068700
     35 H7          32.0740    48.9700     7.5580 h1         1 5P8       0.068700
     36 H8          31.9320    43.7250     7.1810 h1         1 5P8       0.070700
     37 H9          32.3490    41.3700     7.6530 hc         1 5P8       0.054367
     38 H10         33.8960    42.2390     7.5900 hc         1 5P8       0.054367
     39 H11         33.2060    41.7650     9.1580 hc         1 5P8       0.054367
     40 H12         28.2780    51.1850     5.5270 h1         1 5P8       0.067700
     41 H13         26.9000    50.0710     5.2950 h1         1 5P8       0.067700
     42 H14         27.0400    51.0200     6.8060 h1         1 5P8       0.067700
     43 H15         31.8350    48.6380     4.8970 h1         1 5P8       0.050367
     44 H16         32.8930    47.3090     4.3720 h1         1 5P8       0.050367
     45 H17         31.1490    47.0070     4.6340 h1         1 5P8       0.050367
     46 H18         28.0930    43.0330    11.5280 hn         1 5P8       0.484500
     47 H19         29.4660    42.2680    10.8100 hn         1 5P8       0.484500
     48 C25         27.6000    50.4850     6.0300 c3         1 5P8       0.070900
     49 C29         32.0240    47.5610     4.9940 c3         1 5P8       0.081300
@<TRIPOS>BOND
     1     1     7 1   
     2     1    20 3   
     3     2     3 ar  
     4     2    10 ar  
     5     2    29 1   
     6     3    13 ar  
     7     3    30 1   
     8     4     8 ar  
     9     4    12 ar  
    10     4    31 1   
    11     5    11 ar  
    12     5    13 ar  
    13     5    32 1   
    14     6     8 ar  
    15     6    21 ar  
    16     6    33 1   
    17     7     9 2   
    18     7    23 1   
    19     8     9 1   
    20     9    14 1   
    21    10    11 ar  
    22    10    16 1   
    23    11    18 1   
    24    12    15 ar  
    25    12    27 1   
    26    13    28 1   
    27    14    17 1   
    28    14    22 2   
    29    15    21 ar  
    30    15    25 1   
    31    16    24 1   
    32    16    26 2   
    33    17    24 1   
    34    17    34 1   
    35    17    35 1   
    36    18    19 1   
    37    18    27 1   
    38    18    36 1   
    39    19    37 1   
    40    19    38 1   
    41    19    39 1   
    42    22    23 1   
    43    23    48 1   
    44    24    49 1   
    45    25    46 1   
    46    25    47 1   
    47    40    48 1   
    48    41    48 1   
    49    42    48 1   
    50    43    49 1   
    51    44    49 1   
    52    45    49 1   
@<TRIPOS>SUBSTRUCTURE
     1 5P8         1 TEMP              0 ****  ****    0 ROOT
