@<TRIPOS>MOLECULE
5P8
   49    52     1     0     0
SMALL
abcg2


@<TRIPOS>ATOM
      1 C23         26.5260    48.0660     7.4630 cg         1 5P8       0.340000
      2 C12         34.0780    46.7730     8.9030 ca         1 5P8      -0.069000
      3 C13         34.4700    46.5730    10.2170 ca         1 5P8      -0.144000
      4 C6          29.9570    45.3540     8.3000 ca         1 5P8      -0.103000
      5 C15         33.3210    44.4400    10.1960 ca         1 5P8      -0.129000
      6 C4          28.1680    46.1620     9.6460 ca         1 5P8       0.381900
      7 C19         27.9040    48.3090     7.3070 cc         1 5P8      -0.090000
      8 C5          29.0140    46.3600     8.5640 ca         1 5P8      -0.105000
      9 C18         29.0030    47.5710     7.7510 cd         1 5P8      -0.043000
     10 C11         33.3130    45.8220     8.2240 ca         1 5P8      -0.140600
     11 C10         32.9490    44.6310     8.8660 ca         1 5P8      -0.053300
     12 C1          30.0470    44.2570     9.1190 ca         1 5P8       0.019100
     13 C14         34.0650    45.4060    10.8400 ca         1 5P8       0.179000
     14 C22         30.1150    48.2940     7.2530 cd         1 5P8       0.219300
     15 C2          29.1360    44.1420    10.2000 ca         1 5P8       0.599900
     16 C27         32.9570    46.0670     6.7840 c          1 5P8       0.608700
     17 C28         31.5800    48.0480     7.4680 c3         1 5P8       0.083700
     18 C8          32.1390    43.5360     8.1930 c3         1 5P8       0.217600
     19 C9          32.9010    42.2300     8.0720 c3         1 5P8      -0.085100
     20 N24         25.3970    47.8610     7.5860 n1         1 5P8      -0.424000
     21 N3          28.2150    45.0780    10.4310 nb         1 5P8      -0.730000
     22 N21         29.7120    49.3780     6.5800 nc         1 5P8      -0.493800
     23 N20         28.3840    49.3810     6.6100 na         1 5P8       0.154800
     24 N26         32.1920    47.1450     6.4820 n          1 5P8      -0.411800
     25 N17         29.2240    43.0790    11.0510 nv         1 5P8      -1.054900
     26 O30         33.3790    45.2950     5.9170 o          1 5P8      -0.599100
     27 O7          30.9550    43.2500     8.9800 os         1 5P8      -0.362100
     28 F16         34.4160    45.2000    12.1320 f          1 5P8      -0.176000
     29 H1          34.3650    47.6860     8.3980 ha         1 5P8       0.124000
     30 H2          35.0640    47.3030    10.7510 ha         1 5P8       0.138000
     31 H3          30.5930    45.4500     7.4380 ha         1 5P8       0.130000
     32 H4          33.0240    43.5480    10.7320 ha         1 5P8       0.145000
     33 H5          27.4330    46.9120     9.9160 h4         1 5P8       0.023100
     34 H6          31.7260    47.6350     8.4600 h1         1 5P8       0.068700
     35 H7          32.0930    49.0120     7.4240 h1         1 5P8       0.068700
     36 H8          31.8310    43.8490     7.1980 h1         1 5P8       0.070700
     37 H9          32.2770    41.4790     7.5860 hc         1 5P8       0.054367
     38 H10         33.7950    42.3890     7.4690 hc         1 5P8       0.054367
     39 H11         33.2020    41.8610     9.0530 hc         1 5P8       0.054367
     40 H12         28.3140    51.1010     5.4810 h1         1 5P8       0.067700
     41 H13         26.9330    50.0050     5.2370 h1         1 5P8       0.067700
     42 H14         27.0410    50.9840     6.7220 h1         1 5P8       0.067700
     43 H15         32.0060    48.5600     4.9630 h1         1 5P8       0.050367
     44 H16         32.7190    47.0050     4.4700 h1         1 5P8       0.050367
     45 H17         30.9740    47.1350     4.7560 h1         1 5P8       0.050367
     46 H18         28.4280    42.9070    11.6460 hn         1 5P8       0.484500
     47 H19         29.7270    42.2670    10.7340 hn         1 5P8       0.484500
     48 C25         27.6120    50.4350     5.9730 c3         1 5P8       0.070900
     49 C29         31.9580    47.4780     5.0810 c3         1 5P8       0.081300
@<TRIPOS>BOND
     1     1     7 1   
     2     1    20 3   
     3     2     3 ar  
     4     2    10 ar  
     5     2    29 1   
     6     3    13 ar  
     7     3    30 1   
     8     4     8 ar  
     9     4    12 ar  
    10     4    31 1   
    11     5    11 ar  
    12     5    13 ar  
    13     5    32 1   
    14     6     8 ar  
    15     6    21 ar  
    16     6    33 1   
    17     7     9 2   
    18     7    23 1   
    19     8     9 1   
    20     9    14 1   
    21    10    11 ar  
    22    10    16 1   
    23    11    18 1   
    24    12    15 ar  
    25    12    27 1   
    26    13    28 1   
    27    14    17 1   
    28    14    22 2   
    29    15    21 ar  
    30    15    25 1   
    31    16    24 1   
    32    16    26 2   
    33    17    24 1   
    34    17    34 1   
    35    17    35 1   
    36    18    19 1   
    37    18    27 1   
    38    18    36 1   
    39    19    37 1   
    40    19    38 1   
    41    19    39 1   
    42    22    23 1   
    43    23    48 1   
    44    24    49 1   
    45    25    46 1   
    46    25    47 1   
    47    40    48 1   
    48    41    48 1   
    49    42    48 1   
    50    43    49 1   
    51    44    49 1   
    52    45    49 1   
@<TRIPOS>SUBSTRUCTURE
     1 5P8         1 TEMP              0 ****  ****    0 ROOT
