@<TRIPOS>MOLECULE
5P9
   31    33     1     0     0
SMALL
abcg2


@<TRIPOS>ATOM
      1 O1           6.9200     1.3640    16.6670 o          1 5P9      -0.500100
      2 C6          10.7720    -2.1070    22.6970 ca         1 5P9      -0.209000
      3 N1           9.2790    -1.1430    21.0960 ns         1 5P9      -0.327900
      4 C7          11.9190    -2.0190    23.4550 ca         1 5P9      -0.037000
      5 N2          11.2040     0.0320    21.7340 nb         1 5P9      -0.670000
      6 C8          12.7080    -0.8840    23.3300 ca         1 5P9       0.023000
      7 C9          12.3120     0.1120    22.4570 ca         1 5P9       0.389900
      8 C1           6.8850     0.7800    17.7250 c          1 5P9       0.598700
      9 C4           8.8730    -0.3880    20.0350 c          1 5P9       0.611100
     10 C5          10.4520    -1.0470    21.8400 ca         1 5P9       0.489900
     11 C3           7.4740    -0.7330    19.5300 c5         1 5P9      -0.102400
     12 C2           7.4120    -0.6150    18.0030 c5         1 5P9      -0.172400
     13 O2           9.5090     0.5050    19.5230 o          1 5P9      -0.512100
     14 C10          6.5570     0.3690    20.0050 ca         1 5P9      -0.063300
     15 C11          6.0630     0.5900    21.2810 ca         1 5P9      -0.104000
     16 C12          5.2890     1.7230    21.4990 ca         1 5P9      -0.082000
     17 C13          5.0210     2.6260    20.4690 ca         1 5P9      -0.118000
     18 C14          5.5180     2.4040    19.1950 ca         1 5P9      -0.037000
     19 C15          6.2810     1.2630    18.9790 ca         1 5P9      -0.169600
     20 H5          10.1360    -2.9800    22.7640 ha         1 5P9       0.124000
     21 H4           8.6740    -1.9080    21.3530 hn         1 5P9       0.153000
     22 H6          12.1940    -2.8210    24.1270 ha         1 5P9       0.134000
     23 H7          12.9060     1.0120    22.3420 h4         1 5P9       0.040100
     24 H3           7.1460    -1.7120    19.8860 hc         1 5P9       0.070700
     25 H2           6.6760    -1.3250    17.6150 hc         1 5P9       0.083700
     26 H1           8.3530    -0.8130    17.4910 hc         1 5P9       0.083700
     27 H8           6.2710    -0.0990    22.0900 ha         1 5P9       0.116000
     28 H9           4.8870     1.9110    22.4860 ha         1 5P9       0.116000
     29 H10          4.4160     3.5000    20.6710 ha         1 5P9       0.120000
     30 H11          5.3100     3.0960    18.3880 ha         1 5P9       0.134000
     31 CL1         14.1600    -0.7070    24.2440 cl         1 5P9      -0.180000
@<TRIPOS>BOND
     1     1     8 2   
     2     2     4 ar  
     3     2    10 ar  
     4     2    20 1   
     5     3     9 1   
     6     3    10 1   
     7     3    21 1   
     8     4     6 ar  
     9     4    22 1   
    10     5     7 ar  
    11     5    10 ar  
    12     6     7 ar  
    13     6    31 1   
    14     7    23 1   
    15     8    12 1   
    16     8    19 1   
    17     9    11 1   
    18     9    13 2   
    19    11    12 1   
    20    11    14 1   
    21    11    24 1   
    22    12    25 1   
    23    12    26 1   
    24    14    15 ar  
    25    14    19 ar  
    26    15    16 ar  
    27    15    27 1   
    28    16    17 ar  
    29    16    28 1   
    30    17    18 ar  
    31    17    29 1   
    32    18    19 ar  
    33    18    30 1   
@<TRIPOS>SUBSTRUCTURE
     1 5P9         1 TEMP              0 ****  ****    0 ROOT
