@<TRIPOS>MOLECULE
5P9
   31    33     1     0     0
SMALL
No Charge or Current Charge


@<TRIPOS>ATOM
      1 O1           7.2770     1.2520    16.7800 o          1 5P9      -0.500100
      2 C6          11.1430    -2.3440    22.2970 ca         1 5P9      -0.209000
      3 N1           9.3850    -1.0720    21.1900 ns         1 5P9      -0.327900
      4 C7          12.3450    -2.3530    23.0260 ca         1 5P9      -0.037000
      5 N2          11.1750     0.0730    22.1550 nb         1 5P9      -0.670000
      6 C8          12.9550    -1.1210    23.3090 ca         1 5P9       0.023000
      7 C9          12.3350     0.0630    22.8580 ca         1 5P9       0.389900
      8 C1           6.8770     0.6210    17.7510 c          1 5P9       0.598700
      9 C4           8.8810    -0.1400    20.3040 c          1 5P9       0.611100
     10 C5          10.6110    -1.1170    21.8680 ca         1 5P9       0.489900
     11 C3           7.4430    -0.5640    19.8920 c5         1 5P9      -0.102400
     12 C2           7.3550    -0.7370    18.3200 c5         1 5P9      -0.172400
     13 O2           9.4870     0.8410    19.8900 o          1 5P9      -0.512100
     14 C10          6.4370     0.5550    20.0770 ca         1 5P9      -0.063300
     15 C11          5.8550     0.9690    21.2850 ca         1 5P9      -0.104000
     16 C12          4.9590     2.0570    21.2750 ca         1 5P9      -0.082000
     17 C13          4.6620     2.7240    20.0670 ca         1 5P9      -0.118000
     18 C14          5.2550     2.3030    18.8600 ca         1 5P9      -0.037000
     19 C15          6.1300     1.2040    18.8910 ca         1 5P9      -0.169600
     20 H5          10.6320    -3.2740    22.0640 ha         1 5P9       0.124000
     21 H4           8.7800    -1.8580    21.3810 hn         1 5P9       0.153000
     22 H6          12.7890    -3.2860    23.3660 ha         1 5P9       0.134000
     23 H7          12.7800     1.0350    23.0710 h4         1 5P9       0.040100
     24 H3           7.1420    -1.4810    20.4140 hc         1 5P9       0.070700
     25 H2           6.5470    -1.4500    18.1250 hc         1 5P9       0.083700
     26 H1           8.2690    -1.0870    17.8270 hc         1 5P9       0.083700
     27 H8           6.0940     0.4610    22.2170 ha         1 5P9       0.116000
     28 H9           4.5000     2.3890    22.2040 ha         1 5P9       0.116000
     29 H10          3.9760     3.5680    20.0670 ha         1 5P9       0.120000
     30 H11          5.0370     2.8160    17.9250 ha         1 5P9       0.134000
     31 Cl1         14.4630    -1.0640    24.2210 cl         1 5P9      -0.180000
@<TRIPOS>BOND
     1     1     8 2   
     2     2     4 ar  
     3     2    10 ar  
     4     2    20 1   
     5     3     9 1   
     6     3    10 1   
     7     3    21 1   
     8     4     6 ar  
     9     4    22 1   
    10     5     7 ar  
    11     5    10 ar  
    12     6     7 ar  
    13     6    31 1   
    14     7    23 1   
    15     8    12 1   
    16     8    19 1   
    17     9    11 1   
    18     9    13 2   
    19    11    12 1   
    20    11    14 1   
    21    11    24 1   
    22    12    25 1   
    23    12    26 1   
    24    14    15 ar  
    25    14    19 ar  
    26    15    16 ar  
    27    15    27 1   
    28    16    17 ar  
    29    16    28 1   
    30    17    18 ar  
    31    17    29 1   
    32    18    19 ar  
    33    18    30 1   
@<TRIPOS>SUBSTRUCTURE
     1 5P9         1 TEMP              0 ****  ****    0 ROOT
