@<TRIPOS>MOLECULE
5PB
   49    52     1     0     0
SMALL
No Charge or Current Charge


@<TRIPOS>ATOM
      1 N1           1.7050     3.0950     0.1900 n2         1 5PB      -0.512300
      2 C2           0.8010     2.1520     0.1480 cc         1 5PB       0.365800
      3 N3          -0.4780     2.6970     0.2950 n          1 5PB      -0.233500
      4 C4          -0.3430     4.0760     0.4180 c          1 5PB       0.572000
      5 N5           1.0030     4.2730     0.3480 ns         1 5PB      -0.371400
      6 O6          -1.2100     4.9300     0.5230 o          1 5PB      -0.546000
      7 C8          -1.7350     1.9900     0.1830 ca         1 5PB       0.001600
      8 C9          -2.8000     2.3340     1.0430 ca         1 5PB      -0.050500
      9 C10         -4.0010     1.6050     1.0260 ca         1 5PB      -0.170500
     10 C11         -4.1550     0.5050     0.1710 ca         1 5PB       0.159100
     11 C12         -3.0870     0.1310    -0.6700 ca         1 5PB      -0.170500
     12 C13         -1.8840     0.8600    -0.6510 ca         1 5PB      -0.050500
     13 O18         -5.3560    -0.1720     0.1990 os         1 5PB      -0.337100
     14 C19         -5.6120    -1.3140    -0.6360 c3         1 5PB       0.210900
     15 C20         -7.0220    -1.8130    -0.3530 ca         1 5PB      -0.099300
     16 C23         -8.1140    -1.3140    -1.0920 ca         1 5PB      -0.083000
     17 C24         -9.4160    -1.7760    -0.8310 ca         1 5PB      -0.115000
     18 C25         -9.6350    -2.7370     0.1710 ca         1 5PB      -0.097000
     19 C26         -8.5510    -3.2360     0.9120 ca         1 5PB      -0.115000
     20 C27         -7.2480    -2.7750     0.6520 ca         1 5PB      -0.083000
     21 S33          1.1840     0.4280     0.1420 ss         1 5PB      -0.128200
     22 C34          3.0390     0.4260     0.0300 c3         1 5PB      -0.086400
     23 C35          3.6560    -0.9810    -0.0070 c          1 5PB       0.597700
     24 O38          2.9470    -1.9810     0.0310 o          1 5PB      -0.504100
     25 C39          5.1660    -1.1140    -0.0920 ca         1 5PB      -0.176600
     26 C40          5.7560    -2.4010    -0.1240 ca         1 5PB      -0.052000
     27 C41          7.1510    -2.5470    -0.2020 ca         1 5PB      -0.118000
     28 C42          7.9760    -1.4150    -0.2490 ca         1 5PB       0.146000
     29 C43          7.4080    -0.1330    -0.2190 ca         1 5PB      -0.118000
     30 C44          6.0120     0.0210    -0.1400 ca         1 5PB      -0.052000
     31 Cl49         9.7220    -1.6010    -0.3470 cl         1 5PB      -0.188000
     32 HN5          1.3860     5.2210     0.3890 hn         1 5PB       0.491000
     33 H9          -2.6980     3.1630     1.7390 ha         1 5PB       0.128500
     34 H10         -4.8150     1.8880     1.6890 ha         1 5PB       0.128500
     35 H12         -3.1690    -0.7170    -1.3440 ha         1 5PB       0.128500
     36 H13         -1.0890     0.5650    -1.3290 ha         1 5PB       0.128500
     37 H19         -5.5240    -1.0450    -1.6970 h1         1 5PB       0.043200
     38 H19A        -4.8910    -2.1160    -0.4250 h1         1 5PB       0.043200
     39 H23         -7.9530    -0.5680    -1.8670 ha         1 5PB       0.115000
     40 H24        -10.2550    -1.3880    -1.4040 ha         1 5PB       0.115000
     41 H25        -10.6430    -3.0940     0.3730 ha         1 5PB       0.114000
     42 H26         -8.7190    -3.9790     1.6890 ha         1 5PB       0.115000
     43 H27         -6.4140    -3.1650     1.2320 ha         1 5PB       0.115000
     44 H34          3.3450     0.9530    -0.8810 h1         1 5PB       0.101700
     45 H34A         3.4520     0.9530     0.8980 h1         1 5PB       0.101700
     46 H40          5.1350    -3.2950    -0.0880 ha         1 5PB       0.131500
     47 H41          7.5940    -3.5400    -0.2260 ha         1 5PB       0.136000
     48 H43          8.0500     0.7430    -0.2560 ha         1 5PB       0.136000
     49 H44          5.6080     1.0310    -0.1190 ha         1 5PB       0.131500
@<TRIPOS>BOND
     1     1     2 2   
     2     1     5 1   
     3     2     3 1   
     4     2    21 1   
     5     3     4 1   
     6     3     7 1   
     7     4     5 1   
     8     4     6 2   
     9     5    32 1   
    10     7     8 ar  
    11     7    12 ar  
    12     8     9 ar  
    13     8    33 1   
    14     9    10 ar  
    15     9    34 1   
    16    10    11 ar  
    17    10    13 1   
    18    11    12 ar  
    19    11    35 1   
    20    12    36 1   
    21    13    14 1   
    22    14    15 1   
    23    14    37 1   
    24    14    38 1   
    25    15    16 ar  
    26    15    20 ar  
    27    16    17 ar  
    28    16    39 1   
    29    17    18 ar  
    30    17    40 1   
    31    18    19 ar  
    32    18    41 1   
    33    19    20 ar  
    34    19    42 1   
    35    20    43 1   
    36    21    22 1   
    37    22    23 1   
    38    22    44 1   
    39    22    45 1   
    40    23    24 2   
    41    23    25 1   
    42    25    26 ar  
    43    25    30 ar  
    44    26    27 ar  
    45    26    46 1   
    46    27    28 ar  
    47    27    47 1   
    48    28    29 ar  
    49    28    31 1   
    50    29    30 ar  
    51    29    48 1   
    52    30    49 1   
@<TRIPOS>SUBSTRUCTURE
     1 5PB         1 TEMP              0 ****  ****    0 ROOT
