@<TRIPOS>MOLECULE
5PB
   49    52     1     0     0
SMALL
bcc


@<TRIPOS>ATOM
      1 N1           1.6940     3.1880    -0.0350 n2         1 5PB      -0.512300
      2 C2           0.8170     2.2470     0.0010 cc         1 5PB       0.365800
      3 N3          -0.4600     2.7400     0.0160 n          1 5PB      -0.300500
      4 C4          -0.3770     4.1270    -0.0150 c          1 5PB       0.781500
      5 N5           0.9590     4.3350    -0.0430 ns         1 5PB      -0.324900
      6 O6          -1.2970     4.9230    -0.0140 o          1 5PB      -0.621500
      7 C8          -1.6600     1.9920     0.0440 ca         1 5PB       0.001600
      8 C9          -2.4550     1.9940     1.1860 ca         1 5PB      -0.068500
      9 C10         -3.6190     1.2550     1.2160 ca         1 5PB      -0.188500
     10 C11         -4.0010     0.4920     0.1080 ca         1 5PB       0.159100
     11 C12         -3.2030     0.4940    -1.0350 ca         1 5PB      -0.188500
     12 C13         -2.0410     1.2520    -1.0630 ca         1 5PB      -0.068500
     13 O18         -5.1420    -0.2040     0.2360 os         1 5PB      -0.313900
     14 C19         -5.5500    -1.0510    -0.8340 c3         1 5PB       0.187700
     15 C20         -6.8150    -1.7310    -0.4070 ca         1 5PB      -0.099300
     16 C23         -8.0530    -1.1660    -0.6950 ca         1 5PB      -0.101000
     17 C24         -9.2240    -1.7820    -0.2740 ca         1 5PB      -0.133000
     18 C25         -9.1640    -2.9710     0.4430 ca         1 5PB      -0.115000
     19 C26         -7.9310    -3.5400     0.7360 ca         1 5PB      -0.133000
     20 C27         -6.7630    -2.9210     0.3140 ca         1 5PB      -0.101000
     21 S33          1.0970     0.5320     0.0430 ss         1 5PB      -0.080300
     22 C34          2.9060     0.5730     0.0560 c3         1 5PB      -0.134300
     23 C35          3.3850    -0.8570     0.0680 c          1 5PB       0.597700
     24 O38          2.5840    -1.7660     0.0760 o          1 5PB      -0.504100
     25 C39          4.8460    -1.1000     0.0690 ca         1 5PB      -0.176600
     26 C40          5.3090    -2.4170     0.0660 ca         1 5PB      -0.070000
     27 C41          6.6640    -2.6890     0.0660 ca         1 5PB      -0.136000
     28 C42          7.5640    -1.6310     0.0680 ca         1 5PB       0.054400
     29 C43          7.1300    -0.3150     0.0710 ca         1 5PB      -0.136000
     30 C44          5.7690    -0.0560     0.0710 ca         1 5PB      -0.070000
     31 CL49         9.2580    -1.9620     0.0670 cl         1 5PB      -0.096400
     32 HN5          1.4200     5.2310    -0.0750 hn         1 5PB       0.377500
     33 H9          -2.1570     2.5670     2.0550 ha         1 5PB       0.146500
     34 H10         -4.2390     1.2520     2.1030 ha         1 5PB       0.146500
     35 H12         -3.4690    -0.0780    -1.9130 ha         1 5PB       0.146500
     36 H13         -1.4340     1.2620    -1.9590 ha         1 5PB       0.146500
     37 H19         -5.7180    -0.4630    -1.7420 h1         1 5PB       0.043200
     38 H19A        -4.7690    -1.7880    -1.0480 h1         1 5PB       0.043200
     39 H23         -8.1040    -0.2410    -1.2580 ha         1 5PB       0.133000
     40 H24        -10.1820    -1.3360    -0.5050 ha         1 5PB       0.133000
     41 H25        -10.0760    -3.4550     0.7650 ha         1 5PB       0.132000
     42 H26         -7.8790    -4.4680     1.2920 ha         1 5PB       0.133000
     43 H27         -5.8030    -3.3710     0.5370 ha         1 5PB       0.133000
     44 H34          3.2790     1.0960    -0.8260 h1         1 5PB       0.101700
     45 H34A         3.2680     1.1070     0.9370 h1         1 5PB       0.101700
     46 H40          4.6070    -3.2400     0.0640 ha         1 5PB       0.149500
     47 H41          7.0160    -3.7120     0.0620 ha         1 5PB       0.154000
     48 H43          7.8400     0.5000     0.0730 ha         1 5PB       0.154000
     49 H44          5.4480     0.9780     0.0730 ha         1 5PB       0.149500
@<TRIPOS>BOND
     1     1     2 2   
     2     1     5 1   
     3     2     3 1   
     4     2    21 1   
     5     3     4 1   
     6     3     7 1   
     7     4     5 1   
     8     4     6 2   
     9     5    32 1   
    10     7     8 ar  
    11     7    12 ar  
    12     8     9 ar  
    13     8    33 1   
    14     9    10 ar  
    15     9    34 1   
    16    10    11 ar  
    17    10    13 1   
    18    11    12 ar  
    19    11    35 1   
    20    12    36 1   
    21    13    14 1   
    22    14    15 1   
    23    14    37 1   
    24    14    38 1   
    25    15    16 ar  
    26    15    20 ar  
    27    16    17 ar  
    28    16    39 1   
    29    17    18 ar  
    30    17    40 1   
    31    18    19 ar  
    32    18    41 1   
    33    19    20 ar  
    34    19    42 1   
    35    20    43 1   
    36    21    22 1   
    37    22    23 1   
    38    22    44 1   
    39    22    45 1   
    40    23    24 2   
    41    23    25 1   
    42    25    26 ar  
    43    25    30 ar  
    44    26    27 ar  
    45    26    46 1   
    46    27    28 ar  
    47    27    47 1   
    48    28    29 ar  
    49    28    31 1   
    50    29    30 ar  
    51    29    48 1   
    52    30    49 1   
@<TRIPOS>SUBSTRUCTURE
     1 5PB         1 TEMP              0 ****  ****    0 ROOT
