@<TRIPOS>MOLECULE
5PE
   38    40     1     0     0
SMALL
abcg2


@<TRIPOS>ATOM
      1 CAA          3.1040     2.4960    -1.6940 c3         1 5PE       0.156900
      2 OAN          3.6780     1.8150    -0.5950 os         1 5PE      -0.368100
      3 CAT          2.9990     0.7810    -0.0520 ca         1 5PE       0.037100
      4 CAJ          1.7860     0.2910    -0.5090 ca         1 5PE      -0.120000
      5 CAR          3.6110     0.1930     1.0660 ca         1 5PE       0.135100
      6 OAC          4.7890     0.6430     1.5380 oh         1 5PE      -0.532100
      7 CAH          2.9900    -0.8720     1.7010 ca         1 5PE      -0.134000
      8 CAI          1.7780    -1.3610     1.2350 ca         1 5PE      -0.068000
      9 CAS          1.1730    -0.7860     0.1280 ca         1 5PE      -0.113300
     10 CAU         -0.1600    -1.2640    -0.3730 c5         1 5PE       0.319000
     11 SAO         -0.1280    -3.0620    -0.7190 ss         1 5PE      -0.405000
     12 CAK         -1.8270    -3.2750    -0.1460 c5         1 5PE      -0.040400
     13 CAP         -2.1590    -2.0660     0.7010 c          1 5PE       0.566000
     14 OAB         -3.1730    -1.9820     1.3690 o          1 5PE      -0.540000
     15 NAV         -1.2200    -1.1010     0.6050 n          1 5PE      -0.402800
     16 CAL         -1.4410     0.2060     1.1990 c3         1 5PE       0.054700
     17 CAQ         -2.2040     1.1150     0.2720 ca         1 5PE       0.310300
     18 CAG         -3.5570     1.3710     0.4660 ca         1 5PE      -0.132000
     19 CAE         -4.2150     2.2000    -0.4310 ca         1 5PE      -0.074000
     20 CAD         -3.5020     2.7350    -1.4920 ca         1 5PE      -0.157000
     21 CAF         -2.1560     2.4170    -1.6040 ca         1 5PE       0.331900
     22 NAM         -1.5180     1.6320    -0.7460 nb         1 5PE      -0.679000
     23 HAA1         3.7970     3.2890    -1.9630 h1         1 5PE       0.042700
     24 HAA2         2.9700     1.8350    -2.5540 h1         1 5PE       0.042700
     25 HAA3         2.1410     2.9420    -1.4340 h1         1 5PE       0.042700
     26 HAJ          1.2880     0.7470    -1.3540 ha         1 5PE       0.129000
     27 HAC          5.1030     1.3830     1.0030 ho         1 5PE       0.483000
     28 HAH          3.4670    -1.3190     2.5640 ha         1 5PE       0.134000
     29 HAI          1.3100    -2.1960     1.7410 ha         1 5PE       0.131000
     30 HAU         -0.4150    -0.7280    -1.2900 h2         1 5PE       0.086700
     31 HAK1        -2.5350    -3.3290    -0.9740 h1         1 5PE       0.100700
     32 HAK2        -1.9200    -4.1860     0.4440 h1         1 5PE       0.100700
     33 HAL1        -1.9750     0.0710     2.1380 h1         1 5PE       0.080200
     34 HAL2        -0.4710     0.6440     1.4340 h1         1 5PE       0.080200
     35 HAG         -4.0800     0.9300     1.3030 ha         1 5PE       0.138000
     36 HAE         -5.2660     2.4220    -0.3030 ha         1 5PE       0.123000
     37 HAD         -3.9730     3.3850    -2.2180 ha         1 5PE       0.125000
     38 HAF         -1.5660     2.8190    -2.4200 h4         1 5PE       0.015100
@<TRIPOS>BOND
     1     1     2 1   
     2     1    23 1   
     3     1    24 1   
     4     1    25 1   
     5     2     3 1   
     6     3     4 ar  
     7     3     5 ar  
     8     4     9 ar  
     9     4    26 1   
    10     5     6 1   
    11     5     7 ar  
    12     6    27 1   
    13     7     8 ar  
    14     7    28 1   
    15     8     9 ar  
    16     8    29 1   
    17     9    10 1   
    18    10    11 1   
    19    10    15 1   
    20    10    30 1   
    21    11    12 1   
    22    12    13 1   
    23    12    31 1   
    24    12    32 1   
    25    13    14 2   
    26    13    15 1   
    27    15    16 1   
    28    16    17 1   
    29    16    33 1   
    30    16    34 1   
    31    17    18 ar  
    32    17    22 ar  
    33    18    19 ar  
    34    18    35 1   
    35    19    20 ar  
    36    19    36 1   
    37    20    21 ar  
    38    20    37 1   
    39    21    22 ar  
    40    21    38 1   
@<TRIPOS>SUBSTRUCTURE
     1 5PE         1 TEMP              0 ****  ****    0 ROOT
