@<TRIPOS>MOLECULE
5PE
   38    40     1     0     0
SMALL
No Charge or Current Charge


@<TRIPOS>ATOM
      1 CAA          3.0650     2.4640    -1.8570 c3         1 5PE       0.156900
      2 OAN          3.6040     1.8610    -0.6640 os         1 5PE      -0.368100
      3 CAT          2.9880     0.7920    -0.0340 ca         1 5PE       0.037100
      4 CAJ          1.8040     0.1990    -0.5290 ca         1 5PE      -0.120000
      5 CAR          3.5710     0.2910     1.1470 ca         1 5PE       0.135100
      6 OAC          4.7140     0.8590     1.6290 oh         1 5PE      -0.532100
      7 CAH          2.9820    -0.7830     1.8280 ca         1 5PE      -0.134000
      8 CAI          1.8030    -1.3670     1.3340 ca         1 5PE      -0.068000
      9 CAS          1.2060    -0.8840     0.1500 ca         1 5PE      -0.113300
     10 CAU         -0.0830    -1.5030    -0.3900 c5         1 5PE       0.319000
     11 SAO         -0.0420    -3.3520    -0.4560 ss         1 5PE      -0.405000
     12 CAK         -1.8770    -3.3730    -0.2090 c5         1 5PE      -0.040400
     13 CAP         -2.2300    -2.1430     0.6410 c          1 5PE       0.566000
     14 OAB         -3.2370    -1.9890     1.3190 o          1 5PE      -0.540000
     15 NAV         -1.2010    -1.1870     0.5310 n          1 5PE      -0.402800
     16 CAL         -1.3930     0.1530     1.1550 c3         1 5PE       0.054700
     17 CAQ         -2.1550     1.1400     0.2750 ca         1 5PE       0.310300
     18 CAG         -3.5360     1.3530     0.4590 ca         1 5PE      -0.132000
     19 CAE         -4.2090     2.2600    -0.3750 ca         1 5PE      -0.074000
     20 CAD         -3.4670     2.9200    -1.3680 ca         1 5PE      -0.157000
     21 CAF         -2.0930     2.6510    -1.4900 ca         1 5PE       0.331900
     22 NAM         -1.4420     1.7770    -0.6870 nb         1 5PE      -0.679000
     23 HAA1         3.7020     3.2960    -2.1830 h1         1 5PE       0.042700
     24 HAA2         3.0150     1.7350    -2.6750 h1         1 5PE       0.042700
     25 HAA3         2.0580     2.8590    -1.6730 h1         1 5PE       0.042700
     26 HAJ          1.3310     0.5710    -1.4340 ha         1 5PE       0.129000
     27 HAC          4.9450     1.5840     1.0060 ho         1 5PE       0.483000
     28 HAH          3.4350    -1.1620     2.7410 ha         1 5PE       0.134000
     29 HAI          1.3490    -2.1940     1.8760 ha         1 5PE       0.131000
     30 HAU         -0.3530    -1.0900    -1.3710 h2         1 5PE       0.086700
     31 HAK1        -2.3960    -3.2880    -1.1720 h1         1 5PE       0.100700
     32 HAK2        -2.2020    -4.2840     0.3080 h1         1 5PE       0.100700
     33 HAL1        -1.9260     0.0380     2.1070 h1         1 5PE       0.080200
     34 HAL2        -0.4200     0.5910     1.4060 h1         1 5PE       0.080200
     35 HAG         -4.0740     0.8170     1.2370 ha         1 5PE       0.138000
     36 HAE         -5.2750     2.4450    -0.2570 ha         1 5PE       0.123000
     37 HAD         -3.9430     3.6310    -2.0380 ha         1 5PE       0.125000
     38 HAF         -1.4950     3.1480    -2.2520 h4         1 5PE       0.015100
@<TRIPOS>BOND
     1     1     2 1   
     2     1    23 1   
     3     1    24 1   
     4     1    25 1   
     5     2     3 1   
     6     3     4 ar  
     7     3     5 ar  
     8     4     9 ar  
     9     4    26 1   
    10     5     6 1   
    11     5     7 ar  
    12     6    27 1   
    13     7     8 ar  
    14     7    28 1   
    15     8     9 ar  
    16     8    29 1   
    17     9    10 1   
    18    10    11 1   
    19    10    15 1   
    20    10    30 1   
    21    11    12 1   
    22    12    13 1   
    23    12    31 1   
    24    12    32 1   
    25    13    14 2   
    26    13    15 1   
    27    15    16 1   
    28    16    17 1   
    29    16    33 1   
    30    16    34 1   
    31    17    18 ar  
    32    17    22 ar  
    33    18    19 ar  
    34    18    35 1   
    35    19    20 ar  
    36    19    36 1   
    37    20    21 ar  
    38    20    37 1   
    39    21    22 ar  
    40    21    38 1   
@<TRIPOS>SUBSTRUCTURE
     1 5PE         1 TEMP              0 ****  ****    0 ROOT
