@<TRIPOS>MOLECULE
5PF
   43    46     1     0     0
SMALL
No Charge or Current Charge


@<TRIPOS>ATOM
      1 CAB         30.5240   -27.1990    36.6730 c6         1 5PF      -0.070900
      2 CAA         30.9930   -26.6780    38.0540 c6         1 5PF      -0.073400
      3 CAF         31.4160   -27.8460    38.9770 c6         1 5PF      -0.075400
      4 CAE         32.5110   -28.7130    38.3110 c6         1 5PF      -0.073400
      5 CAD         32.0530   -29.2360    36.9260 c6         1 5PF      -0.070900
      6 CAC         31.6230   -28.0660    35.9860 c6         1 5PF      -0.089700
      7 CAG         31.1940   -28.5320    34.5530 c3         1 5PF       0.176300
      8 OAV         30.0600   -29.4020    34.6160 oh         1 5PF      -0.678000
      9 CAH         32.3250   -29.2160    33.7420 c3         1 5PF      -0.081400
     10 CAI         32.0510   -29.3860    32.2250 c5         1 5PF       0.162600
     11 CAM         33.2990   -29.8440    31.4260 ca         1 5PF      -0.173300
     12 CAT         34.5300   -29.1960    31.2520 ca         1 5PF       0.191000
     13 FAU         34.7640   -27.9960    31.8260 f          1 5PF      -0.184000
     14 CAS         35.5220   -29.8050    30.4550 ca         1 5PF      -0.156000
     15 CAR         35.2800   -31.0520    29.8280 ca         1 5PF      -0.072000
     16 CAQ         34.0380   -31.7000    29.9910 ca         1 5PF      -0.105000
     17 CAL         33.0790   -31.0750    30.7950 ca         1 5PF       0.045000
     18 CAK         31.7390   -31.4430    31.1320 cc         1 5PF      -0.197000
     19 NAJ         31.1630   -30.5070    31.8950 na         1 5PF      -0.180500
     20 CAN         29.8010   -30.6500    31.7510 cc         1 5PF       0.446400
     21 NAO         29.5400   -31.6640    30.9100 nd         1 5PF      -0.694000
     22 CAP         30.7740   -32.1330    30.4600 cd         1 5PF       0.284900
     23 H1          30.2650   -26.3450    36.0320 hc         1 5PF       0.041700
     24 H2          29.6020   -27.7820    36.8050 hc         1 5PF       0.041700
     25 H3          31.8350   -25.9850    37.9230 hc         1 5PF       0.040450
     26 H4          30.1860   -26.1020    38.5280 hc         1 5PF       0.040450
     27 H5          31.7840   -27.4510    39.9340 hc         1 5PF       0.040700
     28 H6          30.5410   -28.4690    39.2120 hc         1 5PF       0.040700
     29 H7          32.7630   -29.5600    38.9630 hc         1 5PF       0.040450
     30 H8          33.4310   -28.1230    38.1980 hc         1 5PF       0.040450
     31 H9          31.2210   -29.9410    37.0600 hc         1 5PF       0.041700
     32 H10         32.8750   -29.8070    36.4760 hc         1 5PF       0.041700
     33 H11         32.4990   -27.4190    35.8340 hc         1 5PF       0.052700
     34 H12         30.9150   -27.6210    34.0050 h1         1 5PF       0.029700
     35 H13         29.4520   -29.0230    35.2860 ho         1 5PF       0.446000
     36 H14         32.5580   -30.1930    34.1810 hc         1 5PF       0.073700
     37 H15         33.2270   -28.6080    33.8640 hc         1 5PF       0.073700
     38 H16         31.6590   -28.4460    31.8120 h1         1 5PF       0.082700
     39 H17         36.4780   -29.3070    30.3180 ha         1 5PF       0.134000
     40 H18         36.0520   -31.5080    29.2120 ha         1 5PF       0.121000
     41 H19         33.8310   -32.6520    29.5080 ha         1 5PF       0.130000
     42 H20         29.0820   -29.9850    32.2160 h5         1 5PF       0.075100
     43 H21         30.8770   -32.8530    29.6570 h4         1 5PF       0.040100
@<TRIPOS>BOND
     1     1     2 1   
     2     1     6 1   
     3     1    23 1   
     4     1    24 1   
     5     2     3 1   
     6     2    25 1   
     7     2    26 1   
     8     3     4 1   
     9     3    27 1   
    10     3    28 1   
    11     4     5 1   
    12     4    29 1   
    13     4    30 1   
    14     5     6 1   
    15     5    31 1   
    16     5    32 1   
    17     6     7 1   
    18     6    33 1   
    19     7     8 1   
    20     7     9 1   
    21     7    34 1   
    22     8    35 1   
    23     9    10 1   
    24     9    36 1   
    25     9    37 1   
    26    10    11 1   
    27    10    19 1   
    28    10    38 1   
    29    11    12 ar  
    30    11    17 ar  
    31    12    13 1   
    32    12    14 ar  
    33    14    15 ar  
    34    14    39 1   
    35    15    16 ar  
    36    15    40 1   
    37    16    17 ar  
    38    16    41 1   
    39    17    18 1   
    40    18    19 1   
    41    18    22 2   
    42    19    20 1   
    43    20    21 2   
    44    20    42 1   
    45    21    22 1   
    46    22    43 1   
@<TRIPOS>SUBSTRUCTURE
     1 5PF         1 TEMP              0 ****  ****    0 ROOT
