@<TRIPOS>MOLECULE
5PF
   43    46     1     0     0
SMALL
abcg2


@<TRIPOS>ATOM
      1 CAB         30.8750   -26.9940    36.5640 c6         1 5PF      -0.070900
      2 CAA         31.3090   -26.6660    37.9940 c6         1 5PF      -0.073400
      3 CAF         31.2970   -27.9140    38.8770 c6         1 5PF      -0.075400
      4 CAE         32.1510   -29.0280    38.2680 c6         1 5PF      -0.073400
      5 CAD         31.7210   -29.3520    36.8350 c6         1 5PF      -0.070900
      6 CAC         31.7360   -28.1040    35.9460 c6         1 5PF      -0.089700
      7 CAG         31.3320   -28.3750    34.4890 c3         1 5PF       0.176300
      8 OAV         30.0130   -28.9300    34.3730 oh         1 5PF      -0.678000
      9 CAH         32.2890   -29.3140    33.7710 c3         1 5PF      -0.081400
     10 CAI         32.0050   -29.4490    32.2660 c5         1 5PF       0.162600
     11 CAM         33.2300   -29.7510    31.4240 ca         1 5PF      -0.173300
     12 CAT         34.3930   -29.0300    31.2770 ca         1 5PF       0.191000
     13 FAU         34.5430   -27.8640    31.9550 f          1 5PF      -0.184000
     14 CAS         35.4170   -29.4610    30.4460 ca         1 5PF      -0.156000
     15 CAR         35.2570   -30.6530    29.7420 ca         1 5PF      -0.072000
     16 CAQ         34.0920   -31.4090    29.8600 ca         1 5PF      -0.105000
     17 CAL         33.0860   -30.9490    30.7010 ca         1 5PF       0.045000
     18 CAK         31.7760   -31.4800    31.0230 cc         1 5PF      -0.197000
     19 NAJ         31.1710   -30.6130    31.9130 na         1 5PF      -0.180500
     20 CAN         29.9450   -31.1050    32.2030 cc         1 5PF       0.446400
     21 NAO         29.7300   -32.2380    31.5490 nd         1 5PF      -0.694000
     22 CAP         30.8660   -32.4860    30.8060 cd         1 5PF       0.284900
     23 H1          30.9240   -26.0990    35.9380 hc         1 5PF       0.041700
     24 H2          29.8270   -27.3140    36.5840 hc         1 5PF       0.041700
     25 H3          32.3220   -26.2480    37.9740 hc         1 5PF       0.040450
     26 H4          30.6580   -25.8960    38.4150 hc         1 5PF       0.040450
     27 H5          31.6530   -27.6710    39.8820 hc         1 5PF       0.040700
     28 H6          30.2660   -28.2690    38.9830 hc         1 5PF       0.040700
     29 H7          32.0960   -29.9280    38.8860 hc         1 5PF       0.040450
     30 H8          33.2000   -28.7120    38.2630 hc         1 5PF       0.040450
     31 H9          30.7080   -29.7680    36.8430 hc         1 5PF       0.041700
     32 H10         32.3760   -30.1220    36.4230 hc         1 5PF       0.041700
     33 H11         32.7670   -27.7300    35.9050 hc         1 5PF       0.052700
     34 H12         31.3520   -27.4130    33.9600 h1         1 5PF       0.029700
     35 H13         29.3710   -28.2590    34.6320 ho         1 5PF       0.446000
     36 H14         32.2740   -30.3080    34.2200 hc         1 5PF       0.073700
     37 H15         33.2950   -28.9160    33.9010 hc         1 5PF       0.073700
     38 H16         31.5160   -28.5410    31.9050 h1         1 5PF       0.082700
     39 H17         36.3160   -28.8670    30.3540 ha         1 5PF       0.134000
     40 H18         36.0530   -30.9900    29.0910 ha         1 5PF       0.121000
     41 H19         33.9740   -32.3300    29.3050 ha         1 5PF       0.130000
     42 H20         29.2710   -30.6200    32.8880 h5         1 5PF       0.075100
     43 H21         30.9570   -33.3540    30.1740 h4         1 5PF       0.040100
@<TRIPOS>BOND
     1     1     2 1   
     2     1     6 1   
     3     1    23 1   
     4     1    24 1   
     5     2     3 1   
     6     2    25 1   
     7     2    26 1   
     8     3     4 1   
     9     3    27 1   
    10     3    28 1   
    11     4     5 1   
    12     4    29 1   
    13     4    30 1   
    14     5     6 1   
    15     5    31 1   
    16     5    32 1   
    17     6     7 1   
    18     6    33 1   
    19     7     8 1   
    20     7     9 1   
    21     7    34 1   
    22     8    35 1   
    23     9    10 1   
    24     9    36 1   
    25     9    37 1   
    26    10    11 1   
    27    10    19 1   
    28    10    38 1   
    29    11    12 ar  
    30    11    17 ar  
    31    12    13 1   
    32    12    14 ar  
    33    14    15 ar  
    34    14    39 1   
    35    15    16 ar  
    36    15    40 1   
    37    16    17 ar  
    38    16    41 1   
    39    17    18 1   
    40    18    19 1   
    41    18    22 2   
    42    19    20 1   
    43    20    21 2   
    44    20    42 1   
    45    21    22 1   
    46    22    43 1   
@<TRIPOS>SUBSTRUCTURE
     1 5PF         1 TEMP              0 ****  ****    0 ROOT
