@<TRIPOS>MOLECULE
5PG
   23    23     1     0     0
SMALL
No Charge or Current Charge


@<TRIPOS>ATOM
      1 N           12.5640    38.3360   -57.4000 n7         1 5PG      -0.819400
      2 CA          11.7730    37.9350   -56.1760 c3         1 5PG       0.062800
      3 C           11.9270    36.4370   -55.6620 c          1 5PG       0.727000
      4 O           11.7040    35.5000   -56.4200 o          1 5PG      -0.716000
      5 CN          12.1980    37.7130   -58.6890 c3         1 5PG       0.157100
      6 CB          10.3070    38.3830   -56.2790 ca         1 5PG      -0.066300
      7 CC1          9.9130    39.6030   -55.6880 ca         1 5PG      -0.066000
      8 CC2          9.3360    37.6080   -56.9510 ca         1 5PG      -0.066000
      9 CD1          8.5760    40.0360   -55.7620 ca         1 5PG      -0.186500
     10 CD2          8.0010    38.0440   -57.0240 ca         1 5PG      -0.186500
     11 CE           7.6230    39.2550   -56.4300 ca         1 5PG       0.101100
     12 OH           6.3280    39.6710   -56.5060 oh         1 5PG      -0.553100
     13 OXT         12.2690    36.2690   -54.4960 o          1 5PG      -0.716000
     14 H           12.4730    39.3510   -57.5130 hn         1 5PG       0.364000
     15 HA          12.1970    38.5220   -55.3500 h1         1 5PG       0.042700
     16 HN1C        11.1640    37.9550   -58.9670 h1         1 5PG       0.016700
     17 HN2C        12.8530    38.0860   -59.4870 h1         1 5PG       0.016700
     18 HN3C        12.3050    36.6220   -58.6540 h1         1 5PG       0.016700
     19 HC1         10.6440    40.2180   -55.1680 ha         1 5PG       0.114500
     20 HC2          9.6120    36.6690   -57.4240 ha         1 5PG       0.114500
     21 HD1          8.2920    40.9780   -55.3000 ha         1 5PG       0.099000
     22 HD2          7.2630    37.4390   -57.5450 ha         1 5PG       0.099000
     23 HH           6.2530    40.5300   -56.0380 ho         1 5PG       0.446000
@<TRIPOS>BOND
     1     1     2 1   
     2     1     5 1   
     3     1    14 1   
     4     2     3 1   
     5     2     6 1   
     6     2    15 1   
     7     3     4 1   
     8     3    13 1   
     9     5    16 1   
    10     5    17 1   
    11     5    18 1   
    12     6     7 ar  
    13     6     8 ar  
    14     7     9 ar  
    15     7    19 1   
    16     8    10 ar  
    17     8    20 1   
    18     9    11 ar  
    19     9    21 1   
    20    10    11 ar  
    21    10    22 1   
    22    11    12 1   
    23    12    23 1   
@<TRIPOS>SUBSTRUCTURE
     1 5PG         1 TEMP              0 ****  ****    0 ROOT
