@<TRIPOS>MOLECULE
5PG
   23    23     1     0     0
SMALL
bcc


@<TRIPOS>ATOM
      1 N           12.5200    38.2790   -57.4220 n7         1 5PG      -0.764200
      2 CA          11.7900    37.9280   -56.2100 c3         1 5PG       0.062800
      3 C           11.9920    36.4450   -55.7760 c          1 5PG       0.937600
      4 O           12.9640    35.8340   -56.2560 o          1 5PG      -0.821300
      5 CN          12.0110    37.7180   -58.6550 c3         1 5PG       0.157100
      6 CB          10.3380    38.3560   -56.2310 ca         1 5PG      -0.066300
      7 CC1          9.9630    39.5880   -55.7070 ca         1 5PG      -0.084000
      8 CC2          9.3390    37.6000   -56.8480 ca         1 5PG      -0.084000
      9 CD1          8.6570    40.0570   -55.7790 ca         1 5PG      -0.204500
     10 CD2          8.0320    38.0510   -56.9370 ca         1 5PG      -0.204500
     11 CE           7.6800    39.2890   -56.4010 ca         1 5PG       0.101100
     12 OH           6.3910    39.6810   -56.5110 oh         1 5PG      -0.514100
     13 OXT         11.1850    36.0220   -54.9260 o          1 5PG      -0.821300
     14 H           12.5320    39.2880   -57.5050 hn         1 5PG       0.308800
     15 HA          12.2700    38.5110   -55.4120 h1         1 5PG       0.042700
     16 HN1C        10.9880    38.0190   -58.9170 h1         1 5PG       0.016700
     17 HN2C        12.6590    38.0190   -59.4800 h1         1 5PG       0.016700
     18 HN3C        12.0310    36.6300   -58.6050 h1         1 5PG       0.016700
     19 HC1         10.7090    40.2070   -55.2190 ha         1 5PG       0.132500
     20 HC2          9.5770    36.6280   -57.2620 ha         1 5PG       0.132500
     21 HD1          8.4040    41.0210   -55.3490 ha         1 5PG       0.117000
     22 HD2          7.2760    37.4410   -57.4170 ha         1 5PG       0.117000
     23 HH           6.2690    40.5470   -56.1060 ho         1 5PG       0.407000
@<TRIPOS>BOND
     1     1     2 1   
     2     1     5 1   
     3     1    14 1   
     4     2     3 1   
     5     2     6 1   
     6     2    15 1   
     7     3     4 1   
     8     3    13 1   
     9     5    16 1   
    10     5    17 1   
    11     5    18 1   
    12     6     7 ar  
    13     6     8 ar  
    14     7     9 ar  
    15     7    19 1   
    16     8    10 ar  
    17     8    20 1   
    18     9    11 ar  
    19     9    21 1   
    20    10    11 ar  
    21    10    22 1   
    22    11    12 1   
    23    12    23 1   
@<TRIPOS>SUBSTRUCTURE
     1 5PG         1 TEMP              0 ****  ****    0 ROOT
