@<TRIPOS>MOLECULE
5PH
   62    63     1     0     0
SMALL
abcg2


@<TRIPOS>ATOM
      1 O32          4.1000     0.7900     2.0220 o          1 5PH      -0.646100
      2 C16          3.9330     0.1970     0.9660 c          1 5PH       0.603100
      3 N13          4.9500    -0.4050     0.3300 ns         1 5PH      -0.450900
      4 C9           6.3000    -0.2900     0.8110 c3         1 5PH       0.033700
      5 C25          7.2340    -1.1300    -0.0550 c3         1 5PH      -0.229400
      6 C26          6.9970    -2.6540     0.0780 c          1 5PH       0.719000
      7 O30          7.2400    -3.3320    -0.9370 o          1 5PH      -0.726500
      8 O28          6.6240    -3.0700     1.1900 o          1 5PH      -0.726500
      9 C35          6.7710     1.1580     0.7970 c          1 5PH       0.566100
     10 C36          7.8090     1.5020     1.8260 c3         1 5PH      -0.201100
     11 O5           6.3380     1.9640     0.0070 o          1 5PH      -0.554100
     12 C19          2.5570     0.0410     0.3190 c3         1 5PH      -0.096400
     13 C20          2.6180     0.1150    -1.1880 ca         1 5PH      -0.084300
     14 C22          2.1560    -0.9360    -1.9740 ca         1 5PH      -0.094500
     15 C24          2.1810    -0.8550    -3.3610 ca         1 5PH      -0.112000
     16 C34          2.6700     0.2850    -3.9810 ca         1 5PH      -0.115000
     17 C33          3.1390     1.3400    -3.2050 ca         1 5PH      -0.112000
     18 C31          3.1150     1.2540    -1.8220 ca         1 5PH      -0.094500
     19 C4           1.5530     1.0380     0.9010 c3         1 5PH      -0.057400
     20 C1           0.1330     0.8060     0.4030 c3         1 5PH      -0.082400
     21 C12         -0.8700     1.7240     1.0900 c3         1 5PH      -0.076400
     22 C8          -2.2860     1.4780     0.5970 c3         1 5PH       0.192800
     23 N2          -3.2240     2.3170     1.3410 n7         1 5PH      -0.864300
     24 S7          -4.7830     2.4210     0.8050 sy         1 5PH       1.156600
     25 O3          -4.7270     2.9450    -0.5520 o          1 5PH      -0.565000
     26 O6          -5.5000     3.1590     1.8350 o          1 5PH      -0.565000
     27 C11         -5.4320     0.7870     0.7270 ca         1 5PH      -0.411500
     28 C21         -5.4250     0.0900    -0.4710 ca         1 5PH       0.069000
     29 C23         -5.8980    -1.2100    -0.5310 ca         1 5PH      -0.306600
     30 C29         -5.8980    -1.9720    -1.8320 c          1 5PH       0.726600
     31 O17         -5.4530    -1.4360    -2.8460 o          1 5PH      -0.684500
     32 O14         -6.3750    -3.1500    -1.7660 o          1 5PH      -0.684500
     33 C15         -6.3910    -1.8230     0.6410 ca         1 5PH       0.271100
     34 O10         -6.8540    -3.0570     0.6090 oh         1 5PH      -0.626100
     35 C18         -6.3880    -1.1080     1.8490 ca         1 5PH      -0.236000
     36 C27         -5.9120     0.1830     1.8910 ca         1 5PH       0.011000
     37 H13          4.7930    -0.8000    -0.5840 hn         1 5PH       0.334500
     38 H9           6.3610    -0.6630     1.8370 h1         1 5PH       0.098700
     39 H251         7.1550    -0.8170    -1.1000 hc         1 5PH       0.031700
     40 H252         8.2690    -0.9340     0.2430 hc         1 5PH       0.031700
     41 H361         8.3090     2.4400     1.6000 hc         1 5PH       0.052367
     42 H362         7.3070     1.5960     2.7920 hc         1 5PH       0.052367
     43 H363         8.5500     0.7090     1.9390 hc         1 5PH       0.052367
     44 H19          2.2180    -0.9680     0.5880 hc         1 5PH       0.074700
     45 H22          1.7710    -1.8280    -1.4950 ha         1 5PH       0.121000
     46 H24          1.8160    -1.6840    -3.9540 ha         1 5PH       0.106500
     47 H34          2.6900     0.3530    -5.0610 ha         1 5PH       0.100000
     48 H33          3.5300     2.2300    -3.6810 ha         1 5PH       0.106500
     49 H31          3.4970     2.0810    -1.2340 ha         1 5PH       0.121000
     50 H41          1.5670     0.9550     1.9900 hc         1 5PH       0.051200
     51 H42          1.8660     2.0600     0.6650 hc         1 5PH       0.051200
     52 H11          0.0800     0.9560    -0.6790 hc         1 5PH       0.045700
     53 H12         -0.1500    -0.2370     0.5840 hc         1 5PH       0.045700
     54 H121        -0.8260     1.5630     2.1720 hc         1 5PH       0.042200
     55 H122        -0.6040     2.7710     0.9160 hc         1 5PH       0.042200
     56 H81         -2.3570     1.7330    -0.4610 h1         1 5PH       0.058700
     57 H82         -2.5360     0.4150     0.6970 h1         1 5PH       0.058700
     58 HN2         -3.1970     2.1450     2.3410 hn         1 5PH       0.463000
     59 H21         -5.0590     0.5500    -1.3800 ha         1 5PH       0.147000
     60 H10         -6.7440    -3.3260    -0.3910 ho         1 5PH       0.557000
     61 H18         -6.7660    -1.5780     2.7470 ha         1 5PH       0.106000
     62 H27         -5.9210     0.7210     2.8310 ha         1 5PH       0.101000
@<TRIPOS>BOND
     1     1     2 2   
     2     2     3 1   
     3     2    12 1   
     4     3     4 1   
     5     3    37 1   
     6     4     5 1   
     7     4     9 1   
     8     4    38 1   
     9     5     6 1   
    10     5    39 1   
    11     5    40 1   
    12     6     7 1   
    13     6     8 1   
    14     9    10 1   
    15     9    11 2   
    16    10    41 1   
    17    10    42 1   
    18    10    43 1   
    19    12    13 1   
    20    12    19 1   
    21    12    44 1   
    22    13    14 ar  
    23    13    18 ar  
    24    14    15 ar  
    25    14    45 1   
    26    15    16 ar  
    27    15    46 1   
    28    16    17 ar  
    29    16    47 1   
    30    17    18 ar  
    31    17    48 1   
    32    18    49 1   
    33    19    20 1   
    34    19    50 1   
    35    19    51 1   
    36    20    21 1   
    37    20    52 1   
    38    20    53 1   
    39    21    22 1   
    40    21    54 1   
    41    21    55 1   
    42    22    23 1   
    43    22    56 1   
    44    22    57 1   
    45    23    24 1   
    46    23    58 1   
    47    24    25 2   
    48    24    26 2   
    49    24    27 1   
    50    27    28 ar  
    51    27    36 ar  
    52    28    29 ar  
    53    28    59 1   
    54    29    30 1   
    55    29    33 ar  
    56    30    31 1   
    57    30    32 1   
    58    33    34 1   
    59    33    35 ar  
    60    34    60 1   
    61    35    36 ar  
    62    35    61 1   
    63    36    62 1   
@<TRIPOS>SUBSTRUCTURE
     1 5PH         1 TEMP              0 ****  ****    0 ROOT
