@<TRIPOS>MOLECULE
5PH
   62    63     1     0     0
SMALL
No Charge or Current Charge


@<TRIPOS>ATOM
      1 O32          4.5980     1.4110     1.0830 o          1 5PH      -0.646100
      2 C16          4.2980     0.6160     0.2000 c          1 5PH       0.603100
      3 N13          5.0720    -0.4930    -0.0620 ns         1 5PH      -0.450900
      4 C9           6.2950    -0.8510     0.6830 c3         1 5PH       0.033700
      5 C25          6.6310    -2.3600     0.5450 c3         1 5PH      -0.229400
      6 C26          5.4680    -3.2250     1.0450 c          1 5PH       0.719000
      7 O30          4.6180    -3.5680     0.2390 o          1 5PH      -0.726500
      8 O28          5.4270    -3.4950     2.2350 o          1 5PH      -0.726500
      9 C35          7.4850     0.0630     0.2620 c          1 5PH       0.566100
     10 C36          8.5200     0.3690     1.3460 c3         1 5PH      -0.201100
     11 O5           7.5970     0.5320    -0.8670 o          1 5PH      -0.554100
     12 C19          3.0540     0.7830    -0.7020 c3         1 5PH      -0.096400
     13 C20          3.1840     2.0330    -1.5830 ca         1 5PH      -0.084300
     14 C22          3.4360     1.8960    -2.9640 ca         1 5PH      -0.094500
     15 C24          3.5540     3.0330    -3.7830 ca         1 5PH      -0.112000
     16 C34          3.4220     4.3160    -3.2300 ca         1 5PH      -0.115000
     17 C33          3.1750     4.4630    -1.8560 ca         1 5PH      -0.112000
     18 C31          3.0570     3.3280    -1.0360 ca         1 5PH      -0.094500
     19 C4           1.7450     0.7490     0.1350 c3         1 5PH      -0.057400
     20 C1           0.4580     0.8030    -0.7220 c3         1 5PH      -0.082400
     21 C12         -0.8340     0.7370     0.1230 c3         1 5PH      -0.076400
     22 C8          -2.1150     0.8060    -0.7330 c3         1 5PH       0.192800
     23 N2          -3.2990     0.7550     0.1370 n7         1 5PH      -0.864300
     24 S7          -4.7990     0.8330    -0.5790 sy         1 5PH       1.156600
     25 O3          -4.6990     0.1220    -1.8560 o          1 5PH      -0.565000
     26 O6          -5.2300     2.2290    -0.4680 o          1 5PH      -0.565000
     27 C11         -5.7020    -0.1730     0.5950 ca         1 5PH      -0.411500
     28 C21         -5.9540    -1.5310     0.3130 ca         1 5PH       0.069000
     29 C23         -6.6640    -2.3340     1.2350 ca         1 5PH      -0.306600
     30 C29         -6.9260    -3.7850     0.9170 c          1 5PH       0.726600
     31 O17         -6.5110    -4.2380    -0.1370 o          1 5PH      -0.684500
     32 O14         -7.5480    -4.4480     1.7380 o          1 5PH      -0.684500
     33 C15         -7.1110    -1.7450     2.4350 ca         1 5PH       0.271100
     34 O10         -7.7970    -2.4780     3.3480 oh         1 5PH      -0.626100
     35 C18         -6.8580    -0.3970     2.7130 ca         1 5PH      -0.236000
     36 C27         -6.1540     0.3960     1.7970 ca         1 5PH       0.011000
     37 H13          4.7570    -1.1100    -0.8020 hn         1 5PH       0.334500
     38 H9           6.1110    -0.6460     1.7470 h1         1 5PH       0.098700
     39 H251         6.8120    -2.5380    -0.5230 hc         1 5PH       0.031700
     40 H252         7.5150    -2.5250     1.1720 hc         1 5PH       0.031700
     41 H361         9.3340     1.0090     0.9870 hc         1 5PH       0.052367
     42 H362         8.0090     0.8140     2.2080 hc         1 5PH       0.052367
     43 H363         8.8970    -0.5720     1.7620 hc         1 5PH       0.052367
     44 H19          3.0190    -0.0940    -1.3590 hc         1 5PH       0.074700
     45 H22          3.5410     0.9090    -3.4080 ha         1 5PH       0.121000
     46 H24          3.7470     2.9170    -4.8470 ha         1 5PH       0.106500
     47 H34          3.5130     5.1950    -3.8650 ha         1 5PH       0.100000
     48 H33          3.0760     5.4570    -1.4250 ha         1 5PH       0.106500
     49 H31          2.8720     3.4600     0.0280 ha         1 5PH       0.121000
     50 H41          1.7340    -0.1730     0.7300 hc         1 5PH       0.051200
     51 H42          1.7390     1.5790     0.8520 hc         1 5PH       0.051200
     52 H11          0.4500     1.7290    -1.3110 hc         1 5PH       0.045700
     53 H12          0.4650    -0.0300    -1.4360 hc         1 5PH       0.045700
     54 H121        -0.8370    -0.1930     0.7050 hc         1 5PH       0.042200
     55 H122        -0.8370     1.5670     0.8400 hc         1 5PH       0.042200
     56 H81         -2.1040     1.7400    -1.3120 h1         1 5PH       0.058700
     57 H82         -2.1120    -0.0300    -1.4460 h1         1 5PH       0.058700
     58 HN2         -3.3510    -0.1410     0.6150 hn         1 5PH       0.463000
     59 H21         -5.5990    -1.9630    -0.6230 ha         1 5PH       0.147000
     60 H10         -7.8480    -3.3850     2.9290 ho         1 5PH       0.557000
     61 H18         -7.2090     0.0390     3.6440 ha         1 5PH       0.106000
     62 H27         -5.9610     1.4430     2.0270 ha         1 5PH       0.101000
@<TRIPOS>BOND
     1     1     2 2   
     2     2     3 1   
     3     2    12 1   
     4     3     4 1   
     5     3    37 1   
     6     4     5 1   
     7     4     9 1   
     8     4    38 1   
     9     5     6 1   
    10     5    39 1   
    11     5    40 1   
    12     6     7 1   
    13     6     8 1   
    14     9    10 1   
    15     9    11 2   
    16    10    41 1   
    17    10    42 1   
    18    10    43 1   
    19    12    13 1   
    20    12    19 1   
    21    12    44 1   
    22    13    14 ar  
    23    13    18 ar  
    24    14    15 ar  
    25    14    45 1   
    26    15    16 ar  
    27    15    46 1   
    28    16    17 ar  
    29    16    47 1   
    30    17    18 ar  
    31    17    48 1   
    32    18    49 1   
    33    19    20 1   
    34    19    50 1   
    35    19    51 1   
    36    20    21 1   
    37    20    52 1   
    38    20    53 1   
    39    21    22 1   
    40    21    54 1   
    41    21    55 1   
    42    22    23 1   
    43    22    56 1   
    44    22    57 1   
    45    23    24 1   
    46    23    58 1   
    47    24    25 2   
    48    24    26 2   
    49    24    27 1   
    50    27    28 ar  
    51    27    36 ar  
    52    28    29 ar  
    53    28    59 1   
    54    29    30 1   
    55    29    33 ar  
    56    30    31 1   
    57    30    32 1   
    58    33    34 1   
    59    33    35 ar  
    60    34    60 1   
    61    35    36 ar  
    62    35    61 1   
    63    36    62 1   
@<TRIPOS>SUBSTRUCTURE
     1 5PH         1 TEMP              0 ****  ****    0 ROOT
