@<TRIPOS>MOLECULE
5PI
   82    84     1     0     0
SMALL
abcg2


@<TRIPOS>ATOM
      1 C14         36.0840     7.8050    10.5050 c          1 5PI       0.570100
      2 O1          35.3020     8.4640    11.1860 o          1 5PI      -0.609100
      3 N5          36.1000     7.8170     9.1610 ns         1 5PI      -0.481900
      4 C15         35.1440     8.5680     8.3610 c3         1 5PI       0.037700
      5 C18         35.7060     8.8310     6.9670 c3         1 5PI      -0.075400
      6 C19         36.9470     9.7230     6.9920 c3         1 5PI      -0.157400
      7 C20         33.8390     7.7630     8.2700 c          1 5PI       0.572100
      8 O5          33.8030     6.6830     7.6810 o          1 5PI      -0.583100
      9 N6          32.7830     8.3170     8.8870 ns         1 5PI      -0.491900
     10 C21         31.4930     7.6590     9.0190 c3         1 5PI       0.145300
     11 C16         32.2790     6.1350    10.8770 ca         1 5PI      -0.101500
     12 C17         32.1060     5.5250    12.1100 ca         1 5PI      -0.093500
     13 C22         30.9510     5.7560    12.8640 ca         1 5PI      -0.187900
     14 C23         29.9840     6.6240    12.3560 ca         1 5PI      -0.093500
     15 C24         30.1650     7.2400    11.1240 ca         1 5PI      -0.101500
     16 C25         31.3090     6.9990    10.3670 ca         1 5PI      -0.104300
     17 N1          31.8830     4.7880    14.8740 nv         1 5PI      -1.040200
     18 C2          37.5830     9.8320     5.6200 c          1 5PI       0.597100
     19 O2          37.8750     8.8320     4.9620 o          1 5PI      -0.610100
     20 N3          37.8160    11.0800     5.1740 nt         1 5PI      -0.607000
     21 C1          38.2550     7.8150    11.7800 c3         1 5PI       0.016800
     22 N4          36.5730     6.0530    12.1650 n7         1 5PI      -0.895300
     23 C5          37.1550     6.9340    11.1550 c3         1 5PI       0.154500
     24 O4          35.4750     4.6060    10.3750 o          1 5PI      -0.550500
     25 O3          35.1570     4.1310    12.7960 o          1 5PI      -0.550500
     26 C9          37.4900     3.5640    11.6690 c3         1 5PI      -0.301400
     27 C8          38.1820     3.4250    13.0140 c3         1 5PI      -0.061100
     28 N2          29.5950     4.7550    14.6610 n2         1 5PI      -0.858100
     29 C13         42.0970     4.3220    10.4870 ca         1 5PI      -0.117000
     30 C12         42.0780     4.5820    11.8450 ca         1 5PI      -0.087000
     31 C3          41.1420     5.4990    12.3230 ca         1 5PI      -0.080200
     32 C4          40.2380     6.1540    11.4520 ca         1 5PI      -0.063800
     33 C27         40.2780     5.8860    10.0720 ca         1 5PI      -0.176000
     34 C6          41.2040     4.9680     9.6030 ca         1 5PI       0.127100
     35 N7          40.8730     5.9400    13.6000 na         1 5PI      -0.228700
     36 C29         39.8270     6.8310    13.5580 cc         1 5PI      -0.130100
     37 C28         39.4060     6.9980    12.2620 cd         1 5PI      -0.159400
     38 C7          40.4100     5.1840     7.3510 c3         1 5PI       0.162600
     39 C10         40.7020     4.6130     5.9790 c3         1 5PI      -0.080400
     40 C11         39.7530     5.1810     4.9260 c3         1 5PI      -0.093100
     41 HN5         36.6890     7.1520     8.6810 hn         1 5PI       0.333500
     42 H15         34.9590     9.5120     8.8750 h1         1 5PI       0.072700
     43 H181        34.9240     9.3010     6.3660 hc         1 5PI       0.076700
     44 H182        35.9440     7.8760     6.4960 hc         1 5PI       0.076700
     45 H191        37.7030     9.2890     7.6520 hc         1 5PI       0.058700
     46 H192        36.6980    10.7090     7.3860 hc         1 5PI       0.058700
     47 HN6         32.9330     9.1560     9.4250 hn         1 5PI       0.319500
     48 H211        31.4300     6.9150     8.2250 h1         1 5PI       0.068200
     49 H212        30.7060     8.3950     8.8550 h1         1 5PI       0.068200
     50 H16         33.1800     5.9330    10.3130 ha         1 5PI       0.123500
     51 H17         32.8720     4.8540    12.4740 ha         1 5PI       0.129000
     52 H23         29.0950     6.8410    12.9340 ha         1 5PI       0.129000
     53 H24         29.4120     7.9240    10.7520 ha         1 5PI       0.123500
     54 HN11        32.7210     5.3140    14.6920 hn         1 5PI       0.477500
     55 HN12        31.7690     4.4490    15.8160 hn         1 5PI       0.477500
     56 HN31        38.2600    11.2160     4.2790 hn         1 5PI       0.316500
     57 HN32        37.5720    11.8900     5.7170 hn         1 5PI       0.316500
     58 H11         37.8200     8.3930    12.5980 hc         1 5PI       0.059200
     59 H12A        38.5750     8.5280    11.0130 hc         1 5PI       0.059200
     60 HN4         35.9640     6.5030    12.8400 hn         1 5PI       0.507000
     61 H5          37.6110     6.3040    10.3960 h1         1 5PI       0.068700
     62 H91         38.1390     4.0130    10.9160 h1         1 5PI       0.100200
     63 H92         37.1320     2.6080    11.2810 h1         1 5PI       0.100200
     64 H81         37.5240     2.9620    13.7490 hc         1 5PI       0.050033
     65 H82         39.0620     2.7930    12.8920 hc         1 5PI       0.050033
     66 H83         38.5070     4.3940    13.3860 hc         1 5PI       0.050033
     67 HN2         28.8590     4.9620    13.9920 hn         1 5PI       0.382400
     68 H13         42.8020     3.6120    10.0740 ha         1 5PI       0.130000
     69 H12         42.7660     4.0800    12.5130 ha         1 5PI       0.119000
     70 H27         39.6010     6.3900     9.3990 ha         1 5PI       0.112000
     71 HN7         41.3490     5.6430    14.4350 hn         1 5PI       0.354000
     72 H29         39.4500     7.2780    14.4640 h4         1 5PI       0.216000
     73 H71         40.5180     6.2740     7.3450 h1         1 5PI       0.032200
     74 H72         39.3850     4.9470     7.6570 h1         1 5PI       0.032200
     75 H101        40.6110     3.5240     6.0200 hc         1 5PI       0.052200
     76 H102        41.7380     4.8390     5.7120 hc         1 5PI       0.052200
     77 H111        39.8420     6.2680     4.8610 hc         1 5PI       0.041700
     78 H112        39.9730     4.7670     3.9410 hc         1 5PI       0.041700
     79 H113        38.7130     4.9450     5.1650 hc         1 5PI       0.041700
     80 C26         30.7440     5.0870    14.1820 ce         1 5PI       0.668800
     81 S1          36.0190     4.5750    11.7190 s6         1 5PI       1.198100
     82 O6          41.3300     4.6150     8.2870 os         1 5PI      -0.357100
@<TRIPOS>BOND
     1     1     2 2   
     2     1     3 1   
     3     1    23 1   
     4     3     4 1   
     5     3    41 1   
     6     4     5 1   
     7     4     7 1   
     8     4    42 1   
     9     5     6 1   
    10     5    43 1   
    11     5    44 1   
    12     6    18 1   
    13     6    45 1   
    14     6    46 1   
    15     7     8 2   
    16     7     9 1   
    17     9    10 1   
    18     9    47 1   
    19    10    16 1   
    20    10    48 1   
    21    10    49 1   
    22    11    12 ar  
    23    11    16 ar  
    24    11    50 1   
    25    12    13 ar  
    26    12    51 1   
    27    13    14 ar  
    28    13    80 1   
    29    14    15 ar  
    30    14    52 1   
    31    15    16 ar  
    32    15    53 1   
    33    17    54 1   
    34    17    55 1   
    35    17    80 1   
    36    18    19 2   
    37    18    20 1   
    38    20    56 1   
    39    20    57 1   
    40    21    23 1   
    41    21    37 1   
    42    21    58 1   
    43    21    59 1   
    44    22    23 1   
    45    22    60 1   
    46    22    81 1   
    47    23    61 1   
    48    24    81 2   
    49    25    81 2   
    50    26    27 1   
    51    26    62 1   
    52    26    63 1   
    53    26    81 1   
    54    27    64 1   
    55    27    65 1   
    56    27    66 1   
    57    28    67 1   
    58    28    80 2   
    59    29    30 ar  
    60    29    34 ar  
    61    29    68 1   
    62    30    31 ar  
    63    30    69 1   
    64    31    32 ar  
    65    31    35 1   
    66    32    33 ar  
    67    32    37 1   
    68    33    34 ar  
    69    33    70 1   
    70    34    82 1   
    71    35    36 1   
    72    35    71 1   
    73    36    37 2   
    74    36    72 1   
    75    38    39 1   
    76    38    73 1   
    77    38    74 1   
    78    38    82 1   
    79    39    40 1   
    80    39    75 1   
    81    39    76 1   
    82    40    77 1   
    83    40    78 1   
    84    40    79 1   
@<TRIPOS>SUBSTRUCTURE
     1 5PI         1 TEMP              0 ****  ****    0 ROOT
