@<TRIPOS>MOLECULE
5PI
   82    84     1     0     0
SMALL
No Charge or Current Charge


@<TRIPOS>ATOM
      1 C14         37.2160     7.8550    11.4550 c          1 5PI       0.570100
      2 O1          36.7890     8.9580    11.7760 o          1 5PI      -0.609100
      3 N5          36.7170     7.1590    10.3690 ns         1 5PI      -0.481900
      4 C15         35.6810     7.6550     9.4370 c3         1 5PI       0.037700
      5 C18         36.3220     8.2810     8.1680 c3         1 5PI      -0.075400
      6 C19         37.3210     9.4360     8.4410 c3         1 5PI      -0.157400
      7 C20         34.7140     6.4950     9.0570 c          1 5PI       0.572100
      8 O5          34.9860     5.3150     9.2420 o          1 5PI      -0.583100
      9 N6          33.5220     6.8910     8.4890 ns         1 5PI      -0.491900
     10 C21         32.4540     5.9790     8.0760 c3         1 5PI       0.145300
     11 C16         31.5380     4.9450    10.2090 ca         1 5PI      -0.101500
     12 C17         30.5540     4.8340    11.2050 ca         1 5PI      -0.093500
     13 C22         29.3960     5.6480    11.1730 ca         1 5PI      -0.187900
     14 C23         29.2410     6.5520    10.0950 ca         1 5PI      -0.093500
     15 C24         30.2290     6.6610     9.1010 ca         1 5PI      -0.101500
     16 C25         31.3840     5.8600     9.1520 ca         1 5PI      -0.104300
     17 N1          28.6960     5.1450    13.4520 nv         1 5PI      -1.040200
     18 C2          37.8200    10.0610     7.1350 c          1 5PI       0.597100
     19 O2          38.7250     9.5880     6.4710 o          1 5PI      -0.610100
     20 N3          37.1970    11.1890     6.7370 nt         1 5PI      -0.607000
     21 C1          39.6920     7.9140    12.0890 c3         1 5PI       0.016800
     22 N4          38.0740     6.8900    13.6880 n7         1 5PI      -0.895300
     23 C5          38.3630     7.1300    12.2370 c3         1 5PI       0.154500
     24 O4          35.6840     6.1620    13.4210 o          1 5PI      -0.550500
     25 O3          36.9310     5.7770    15.6030 o          1 5PI      -0.550500
     26 C9          37.5470     4.2290    13.5270 c3         1 5PI      -0.301400
     27 C8          38.9800     3.8930    14.0120 c3         1 5PI      -0.061100
     28 N2          27.1190     5.8380    12.0250 n2         1 5PI      -0.858100
     29 C13         42.2340     4.4620     8.9230 ca         1 5PI      -0.117000
     30 C12         42.8650     4.5940    10.1810 ca         1 5PI      -0.087000
     31 C3          42.2990     5.4830    11.1040 ca         1 5PI      -0.080200
     32 C4          41.1790     6.2020    10.8050 ca         1 5PI      -0.063800
     33 C27         40.5280     6.1010     9.5700 ca         1 5PI      -0.176000
     34 C6          41.0700     5.2080     8.6120 ca         1 5PI       0.127100
     35 N7          42.7070     5.7940    12.3900 na         1 5PI      -0.228700
     36 C29         41.8270     6.7420    12.9600 cc         1 5PI      -0.130100
     37 C28         40.8790     6.9910    11.9740 cd         1 5PI      -0.159400
     38 C7          39.2950     5.7220     6.9840 c3         1 5PI       0.162600
     39 C10         38.9280     5.2760     5.5560 c3         1 5PI      -0.080400
     40 C11         37.6330     5.9320     5.0370 c3         1 5PI      -0.093100
     41 HN5         37.0750     6.2220    10.2170 hn         1 5PI       0.333500
     42 H15         35.0790     8.4190     9.9470 h1         1 5PI       0.072700
     43 H181        35.5230     8.6530     7.5130 hc         1 5PI       0.076700
     44 H182        36.8370     7.4930     7.6050 hc         1 5PI       0.076700
     45 H191        38.1830     9.0450     8.9920 hc         1 5PI       0.058700
     46 H192        36.7980    10.1950     9.0360 hc         1 5PI       0.058700
     47 HN6         33.3670     7.8870     8.3840 hn         1 5PI       0.319500
     48 H211        32.8720     4.9870     7.8550 h1         1 5PI       0.068200
     49 H212        32.0060     6.3590     7.1480 h1         1 5PI       0.068200
     50 H16         32.4240     4.3140    10.2560 ha         1 5PI       0.123500
     51 H17         30.6930     4.1020    11.9980 ha         1 5PI       0.129000
     52 H23         28.3630     7.1900    10.0290 ha         1 5PI       0.129000
     53 H24         30.0950     7.3730     8.2890 ha         1 5PI       0.123500
     54 HN11        29.6630     5.3420    13.6810 hn         1 5PI       0.477500
     55 HN12        28.0180     5.3830    14.1640 hn         1 5PI       0.477500
     56 HN31        37.4900    11.6390     5.8830 hn         1 5PI       0.316500
     57 HN32        36.4480    11.5770     7.2920 hn         1 5PI       0.316500
     58 H11         39.8150     8.6130    12.9260 hc         1 5PI       0.059200
     59 H12A        39.6490     8.5350    11.1860 hc         1 5PI       0.059200
     60 HN4         37.6920     7.7430    14.0960 hn         1 5PI       0.507000
     61 H5          38.5140     6.1690    11.7300 h1         1 5PI       0.068700
     62 H91         37.5110     4.2810    12.4340 h1         1 5PI       0.100200
     63 H92         36.8390     3.4660    13.8680 h1         1 5PI       0.100200
     64 H81         39.0280     3.8620    15.1080 hc         1 5PI       0.050033
     65 H82         39.2900     2.9120    13.6320 hc         1 5PI       0.050033
     66 H83         39.7050     4.6350    13.6550 hc         1 5PI       0.050033
     67 HN2         27.0020     6.0360    11.0240 hn         1 5PI       0.382400
     68 H13         42.6440     3.7790     8.1840 ha         1 5PI       0.130000
     69 H12         43.7580     4.0220    10.4240 ha         1 5PI       0.119000
     70 H27         39.6430     6.6960     9.3710 ha         1 5PI       0.112000
     71 HN7         43.5170     5.3950    12.8540 hn         1 5PI       0.354000
     72 H29         41.9340     7.1320    13.9680 h4         1 5PI       0.216000
     73 H71         39.4500     6.8080     6.9990 h1         1 5PI       0.032200
     74 H72         38.4710     5.4740     7.6660 h1         1 5PI       0.032200
     75 H101        38.8090     4.1850     5.5370 hc         1 5PI       0.052200
     76 H102        39.7530     5.5240     4.8770 hc         1 5PI       0.052200
     77 H111        37.7300     7.0240     5.0200 hc         1 5PI       0.041700
     78 H112        37.4130     5.5920     4.0180 hc         1 5PI       0.041700
     79 H113        36.7810     5.6700     5.6760 hc         1 5PI       0.041700
     80 C26         28.3270     5.5010    12.2100 ce         1 5PI       0.668800
     81 S1          36.9040     5.7990    14.1400 s6         1 5PI       1.198100
     82 O6          40.4960     5.0310     7.3690 os         1 5PI      -0.357100
@<TRIPOS>BOND
     1     1     2 2   
     2     1     3 1   
     3     1    23 1   
     4     3     4 1   
     5     3    41 1   
     6     4     5 1   
     7     4     7 1   
     8     4    42 1   
     9     5     6 1   
    10     5    43 1   
    11     5    44 1   
    12     6    18 1   
    13     6    45 1   
    14     6    46 1   
    15     7     8 2   
    16     7     9 1   
    17     9    10 1   
    18     9    47 1   
    19    10    16 1   
    20    10    48 1   
    21    10    49 1   
    22    11    12 ar  
    23    11    16 ar  
    24    11    50 1   
    25    12    13 ar  
    26    12    51 1   
    27    13    14 ar  
    28    13    80 1   
    29    14    15 ar  
    30    14    52 1   
    31    15    16 ar  
    32    15    53 1   
    33    17    54 1   
    34    17    55 1   
    35    17    80 1   
    36    18    19 2   
    37    18    20 1   
    38    20    56 1   
    39    20    57 1   
    40    21    23 1   
    41    21    37 1   
    42    21    58 1   
    43    21    59 1   
    44    22    23 1   
    45    22    60 1   
    46    22    81 1   
    47    23    61 1   
    48    24    81 2   
    49    25    81 2   
    50    26    27 1   
    51    26    62 1   
    52    26    63 1   
    53    26    81 1   
    54    27    64 1   
    55    27    65 1   
    56    27    66 1   
    57    28    67 1   
    58    28    80 2   
    59    29    30 ar  
    60    29    34 ar  
    61    29    68 1   
    62    30    31 ar  
    63    30    69 1   
    64    31    32 ar  
    65    31    35 1   
    66    32    33 ar  
    67    32    37 1   
    68    33    34 ar  
    69    33    70 1   
    70    34    82 1   
    71    35    36 1   
    72    35    71 1   
    73    36    37 2   
    74    36    72 1   
    75    38    39 1   
    76    38    73 1   
    77    38    74 1   
    78    38    82 1   
    79    39    40 1   
    80    39    75 1   
    81    39    76 1   
    82    40    77 1   
    83    40    78 1   
    84    40    79 1   
@<TRIPOS>SUBSTRUCTURE
     1 5PI         1 TEMP              0 ****  ****    0 ROOT
