@<TRIPOS>MOLECULE
5PJ
   41    44     1     0     0
SMALL
bcc


@<TRIPOS>ATOM
      1 CAB          3.3520    -1.3520    -0.2520 c6         1 5PJ      -0.065400
      2 CAC          4.5850    -1.9070     0.4550 c6         1 5PJ      -0.074400
      3 CAD          5.7130    -0.8840     0.5030 c6         1 5PJ      -0.075400
      4 CAE          5.2460     0.4180     1.1450 c6         1 5PJ      -0.074400
      5 CAF          4.0210     0.9840     0.4350 c6         1 5PJ      -0.065400
      6 CAA          2.8870    -0.0370     0.4030 c6         1 5PJ      -0.161700
      7 CAG          1.6600     0.4770    -0.3120 c          1 5PJ       0.578100
      8 OAJ          1.7040     1.3800    -1.1180 o          1 5PJ      -0.525100
      9 CAH          0.3620    -0.2290     0.0070 c3         1 5PJ      -0.200400
     10 CAI         -0.8640     0.3640    -0.6760 c5         1 5PJ       0.136300
     11 CAN         -2.1070    -0.4660    -0.4540 ca         1 5PJ      -0.180300
     12 CAU         -2.3860    -1.7500    -0.8570 ca         1 5PJ       0.163900
     13 FAV         -1.4750    -2.4290    -1.5700 f          1 5PJ      -0.142900
     14 CAT         -3.5920    -2.3550    -0.5420 ca         1 5PJ      -0.176000
     15 CAS         -4.5340    -1.6420     0.1910 ca         1 5PJ      -0.088000
     16 CAR         -4.2900    -0.3370     0.6040 ca         1 5PJ      -0.122000
     17 CAM         -3.0740     0.2390     0.2720 ca         1 5PJ       0.044000
     18 CAL         -2.5320     1.5580     0.5140 cc         1 5PJ      -0.211600
     19 NAK         -1.2910     1.6190    -0.0610 na         1 5PJ      -0.195900
     20 CAO         -0.8070     2.8580     0.1450 cc         1 5PJ       0.434400
     21 NAP         -1.6680     3.5890     0.8180 nd         1 5PJ      -0.687000
     22 CAQ         -2.7520     2.7940     1.0580 cd         1 5PJ       0.349200
     23 H1           3.5860    -1.1650    -1.3050 hc         1 5PJ       0.048950
     24 H2           2.5510    -2.0950    -0.2320 hc         1 5PJ       0.048950
     25 H3           4.3120    -2.1980     1.4740 hc         1 5PJ       0.041700
     26 H4           4.9140    -2.8170    -0.0510 hc         1 5PJ       0.041700
     27 H5           6.5670    -1.2900     1.0500 hc         1 5PJ       0.042200
     28 H6           6.0630    -0.6800    -0.5150 hc         1 5PJ       0.042200
     29 H7           5.0060     0.2390     2.1990 hc         1 5PJ       0.041700
     30 H8           6.0510     1.1560     1.1330 hc         1 5PJ       0.041700
     31 H9           3.6890     1.8980     0.9320 hc         1 5PJ       0.048950
     32 H10          4.2930     1.2620    -0.5870 hc         1 5PJ       0.048950
     33 H11          2.5890    -0.2760     1.4330 hc         1 5PJ       0.063700
     34 H12          0.4770    -1.2750    -0.2910 hc         1 5PJ       0.086200
     35 H13          0.2190    -0.2510     1.0910 hc         1 5PJ       0.086200
     36 H14         -0.6730     0.5170    -1.7410 h1         1 5PJ       0.102700
     37 H15         -3.7920    -3.3670    -0.8690 ha         1 5PJ       0.153000
     38 H16         -5.4750    -2.1140     0.4360 ha         1 5PJ       0.140000
     39 H17         -5.0340     0.2110     1.1650 ha         1 5PJ       0.149000
     40 H18          0.1530     3.1890    -0.2120 h5         1 5PJ       0.072100
     41 H19         -3.6170     3.1500     1.5950 h4         1 5PJ       0.041100
@<TRIPOS>BOND
     1     1     2 1   
     2     1     6 1   
     3     1    23 1   
     4     1    24 1   
     5     2     3 1   
     6     2    25 1   
     7     2    26 1   
     8     3     4 1   
     9     3    27 1   
    10     3    28 1   
    11     4     5 1   
    12     4    29 1   
    13     4    30 1   
    14     5     6 1   
    15     5    31 1   
    16     5    32 1   
    17     6     7 1   
    18     6    33 1   
    19     7     8 2   
    20     7     9 1   
    21     9    10 1   
    22     9    34 1   
    23     9    35 1   
    24    10    11 1   
    25    10    19 1   
    26    10    36 1   
    27    11    12 ar  
    28    11    17 ar  
    29    12    13 1   
    30    12    14 ar  
    31    14    15 ar  
    32    14    37 1   
    33    15    16 ar  
    34    15    38 1   
    35    16    17 ar  
    36    16    39 1   
    37    17    18 1   
    38    18    19 1   
    39    18    22 2   
    40    19    20 1   
    41    20    21 2   
    42    20    40 1   
    43    21    22 1   
    44    22    41 1   
@<TRIPOS>SUBSTRUCTURE
     1 5PJ         1 TEMP              0 ****  ****    0 ROOT
