@<TRIPOS>MOLECULE
5PJ
   41    44     1     0     0
SMALL
No Charge or Current Charge


@<TRIPOS>ATOM
      1 CAB          3.5880    -1.4670    -0.2000 c6         1 5PJ      -0.065400
      2 CAC          4.5590    -1.4340     1.0070 c6         1 5PJ      -0.074400
      3 CAD          5.3970    -0.1310     1.0240 c6         1 5PJ      -0.075400
      4 CAE          4.4870     1.1230     1.0300 c6         1 5PJ      -0.074400
      5 CAF          3.5200     1.1250    -0.1800 c6         1 5PJ      -0.065400
      6 CAA          2.6980    -0.1940    -0.2390 c6         1 5PJ      -0.161700
      7 CAG          1.6450    -0.2470    -1.3700 c          1 5PJ       0.578100
      8 OAJ          1.8960     0.1660    -2.4950 o          1 5PJ      -0.525100
      9 CAH          0.3020    -0.9080    -1.0570 c3         1 5PJ      -0.200400
     10 CAI         -0.8270     0.1350    -0.9070 c5         1 5PJ       0.165600
     11 CAN         -2.1560    -0.4990    -0.4340 ca         1 5PJ      -0.180300
     12 CAU         -2.9590    -1.4560    -1.0700 ca         1 5PJ       0.199000
     13 FAV         -2.6080    -1.9590    -2.2740 f          1 5PJ      -0.178000
     14 CAT         -4.1470    -1.8830    -0.4420 ca         1 5PJ      -0.158000
     15 CAS         -4.5320    -1.3500     0.8130 ca         1 5PJ      -0.070000
     16 CAR         -3.7280    -0.3820     1.4500 ca         1 5PJ      -0.104000
     17 CAM         -2.5510     0.0140     0.8060 ca         1 5PJ       0.044000
     18 CAL         -1.5510     0.9740     1.1630 cc         1 5PJ      -0.197000
     19 NAK         -0.6190     1.0700     0.2040 na         1 5PJ      -0.174500
     20 CAO         -0.0840     2.3370     0.2950 cc         1 5PJ       0.434400
     21 NAP         -0.6600     3.0050     1.3040 nd         1 5PJ      -0.687000
     22 CAQ         -1.6470     2.1670     1.8160 cd         1 5PJ       0.283900
     23 H1           4.1640    -1.5440    -1.1330 hc         1 5PJ       0.048950
     24 H2           2.9620    -2.3690    -0.1450 hc         1 5PJ       0.048950
     25 H3           3.9890    -1.5190     1.9430 hc         1 5PJ       0.041700
     26 H4           5.2260    -2.3060     0.9710 hc         1 5PJ       0.041700
     27 H5           6.0500    -0.1210     1.9070 hc         1 5PJ       0.042200
     28 H6           6.0590    -0.1050     0.1470 hc         1 5PJ       0.042200
     29 H7           3.9110     1.1570     1.9650 hc         1 5PJ       0.041700
     30 H8           5.1050     2.0320     1.0130 hc         1 5PJ       0.041700
     31 H9           2.8500     1.9920    -0.1130 hc         1 5PJ       0.048950
     32 H10          4.0960     1.2460    -1.1080 hc         1 5PJ       0.048950
     33 H11          2.1130    -0.2560     0.6890 hc         1 5PJ       0.063700
     34 H12          0.0530    -1.5860    -1.8800 hc         1 5PJ       0.086200
     35 H13          0.3770    -1.4780    -0.1240 hc         1 5PJ       0.086200
     36 H14         -0.9650     0.6810    -1.8520 h1         1 5PJ       0.102700
     37 H15         -4.7740    -2.6240    -0.9300 ha         1 5PJ       0.135000
     38 H16         -5.4530    -1.6840     1.2850 ha         1 5PJ       0.122000
     39 H17         -4.0120     0.0440     2.4100 ha         1 5PJ       0.131000
     40 H18          0.6490     2.7190    -0.4060 h5         1 5PJ       0.072100
     41 H19         -2.3880     2.5000     2.5330 h4         1 5PJ       0.041100
@<TRIPOS>BOND
     1     1     2 1   
     2     1     6 1   
     3     1    23 1   
     4     1    24 1   
     5     2     3 1   
     6     2    25 1   
     7     2    26 1   
     8     3     4 1   
     9     3    27 1   
    10     3    28 1   
    11     4     5 1   
    12     4    29 1   
    13     4    30 1   
    14     5     6 1   
    15     5    31 1   
    16     5    32 1   
    17     6     7 1   
    18     6    33 1   
    19     7     8 2   
    20     7     9 1   
    21     9    10 1   
    22     9    34 1   
    23     9    35 1   
    24    10    11 1   
    25    10    19 1   
    26    10    36 1   
    27    11    12 ar  
    28    11    17 ar  
    29    12    13 1   
    30    12    14 ar  
    31    14    15 ar  
    32    14    37 1   
    33    15    16 ar  
    34    15    38 1   
    35    16    17 ar  
    36    16    39 1   
    37    17    18 1   
    38    18    19 1   
    39    18    22 2   
    40    19    20 1   
    41    20    21 2   
    42    20    40 1   
    43    21    22 1   
    44    22    41 1   
@<TRIPOS>SUBSTRUCTURE
     1 5PJ         1 TEMP              0 ****  ****    0 ROOT
