@<TRIPOS>MOLECULE
5PK
   43    46     1     0     0
SMALL
No Charge or Current Charge


@<TRIPOS>ATOM
      1 CAA         -2.9770    -0.3990     1.3910 c6         1 5PK      -0.069400
      2 CAF         -4.3750    -0.8060     1.9210 c6         1 5PK      -0.073900
      3 CAE         -5.4980    -0.0040     1.2250 c6         1 5PK      -0.075400
      4 CAD         -5.4170    -0.1660    -0.3100 c6         1 5PK      -0.073900
      5 CAC         -4.0240     0.2490    -0.8430 c6         1 5PK      -0.069400
      6 CAB         -2.8690    -0.5510    -0.1590 c6         1 5PK      -0.089700
      7 CAG         -1.4630    -0.1210    -0.7140 c3         1 5PK       0.170300
      8 OAI         -1.4140    -0.2860    -2.1370 oh         1 5PK      -0.659000
      9 CAH         -0.2570    -0.8810    -0.1040 c3         1 5PK      -0.117400
     10 CAJ          1.1350    -0.5410    -0.6980 c5         1 5PK       0.144600
     11 CAK          1.6480     0.8960    -0.3990 ca         1 5PK      -0.118300
     12 CAR          1.1350     2.1320    -0.8260 ca         1 5PK      -0.079000
     13 CAS          1.8040     3.3140    -0.4390 ca         1 5PK      -0.116000
     14 CAT          2.9790     3.2610     0.3490 ca         1 5PK      -0.100000
     15 CAU          3.5080     2.0200     0.7570 ca         1 5PK      -0.086000
     16 CAL          2.8210     0.8650     0.3710 ca         1 5PK       0.004000
     17 CAM          3.1080    -0.5220     0.5750 cc         1 5PK      -0.174000
     18 NAN          2.2030    -1.2920    -0.0320 na         1 5PK      -0.178500
     19 CAQ          2.7730    -2.5330    -0.2030 cc         1 5PK       0.409400
     20 NAP          4.0180    -2.5280     0.2970 nd         1 5PK      -0.680000
     21 CAO          4.2640    -1.2260     0.7380 cd         1 5PK       0.269900
     22 H1          -2.7620     0.6390     1.6810 hc         1 5PK       0.043450
     23 H2          -2.2290    -1.0250     1.8940 hc         1 5PK       0.043450
     24 H3          -4.5320    -1.8820     1.7570 hc         1 5PK       0.039950
     25 H4          -4.4220    -0.6470     3.0070 hc         1 5PK       0.039950
     26 H5          -6.4780    -0.3440     1.5860 hc         1 5PK       0.040200
     27 H6          -5.4160     1.0580     1.4920 hc         1 5PK       0.040200
     28 H7          -5.6230    -1.2100    -0.5840 hc         1 5PK       0.039950
     29 H8          -6.1950     0.4420    -0.7890 hc         1 5PK       0.039950
     30 H9          -4.0060     0.0980    -1.9310 hc         1 5PK       0.043450
     31 H10         -3.8760     1.3260    -0.6800 hc         1 5PK       0.043450
     32 H11         -2.9930    -1.6150    -0.4070 hc         1 5PK       0.043700
     33 H12         -1.3430     0.9420    -0.4640 h1         1 5PK       0.079700
     34 H13         -1.7880    -1.1710    -2.3340 ho         1 5PK       0.439000
     35 H14         -0.2190    -0.6800     0.9730 hc         1 5PK       0.059700
     36 H15         -0.4370    -1.9580    -0.2080 hc         1 5PK       0.059700
     37 H16          1.1470    -0.7450    -1.7770 h1         1 5PK       0.088700
     38 H17          0.2490     2.1830    -1.4540 ha         1 5PK       0.130000
     39 H18          1.4160     4.2790    -0.7600 ha         1 5PK       0.116000
     40 H19          3.4840     4.1820     0.6310 ha         1 5PK       0.116000
     41 H20          4.4190     1.9610     1.3470 ha         1 5PK       0.124000
     42 H21          2.2720    -3.3490    -0.7100 h5         1 5PK       0.055100
     43 H22          5.2390    -0.8840     1.0630 h4         1 5PK       0.041100
@<TRIPOS>BOND
     1     1     2 1   
     2     1     6 1   
     3     1    22 1   
     4     1    23 1   
     5     2     3 1   
     6     2    24 1   
     7     2    25 1   
     8     3     4 1   
     9     3    26 1   
    10     3    27 1   
    11     4     5 1   
    12     4    28 1   
    13     4    29 1   
    14     5     6 1   
    15     5    30 1   
    16     5    31 1   
    17     6     7 1   
    18     6    32 1   
    19     7     8 1   
    20     7     9 1   
    21     7    33 1   
    22     8    34 1   
    23     9    10 1   
    24     9    35 1   
    25     9    36 1   
    26    10    11 1   
    27    10    18 1   
    28    10    37 1   
    29    11    12 ar  
    30    11    16 ar  
    31    12    13 ar  
    32    12    38 1   
    33    13    14 ar  
    34    13    39 1   
    35    14    15 ar  
    36    14    40 1   
    37    15    16 ar  
    38    15    41 1   
    39    16    17 1   
    40    17    18 1   
    41    17    21 2   
    42    18    19 1   
    43    19    20 2   
    44    19    42 1   
    45    20    21 1   
    46    21    43 1   
@<TRIPOS>SUBSTRUCTURE
     1 5PK         1 TEMP              0 ****  ****    0 ROOT
