@<TRIPOS>MOLECULE
5PK
   43    46     1     0     0
SMALL
abcg2


@<TRIPOS>ATOM
      1 CAA         -2.8420    -0.4950     1.3540 c6         1 5PK      -0.069400
      2 CAF         -4.1990    -0.9590     1.8750 c6         1 5PK      -0.073900
      3 CAE         -5.3420    -0.1440     1.2840 c6         1 5PK      -0.075400
      4 CAD         -5.2930    -0.1750    -0.2390 c6         1 5PK      -0.073900
      5 CAC         -3.9400     0.2980    -0.7600 c6         1 5PK      -0.069400
      6 CAB         -2.7790    -0.5120    -0.1760 c6         1 5PK      -0.089700
      7 CAG         -1.4330     0.0020    -0.7030 c3         1 5PK       0.170300
      8 OAI         -1.4050     0.0500    -2.1170 oh         1 5PK      -0.659000
      9 CAH         -0.2510    -0.7980    -0.1610 c3         1 5PK      -0.117400
     10 CAJ          1.0950    -0.4560    -0.8090 c5         1 5PK       0.144600
     11 CAK          1.6100     0.9430    -0.5390 ca         1 5PK      -0.118300
     12 CAR          1.1010     2.1560    -0.9620 ca         1 5PK      -0.079000
     13 CAS          1.7480     3.3280    -0.5760 ca         1 5PK      -0.116000
     14 CAT          2.8940     3.2820     0.2100 ca         1 5PK      -0.100000
     15 CAU          3.4270     2.0640     0.6170 ca         1 5PK      -0.086000
     16 CAL          2.7810     0.9000     0.2330 ca         1 5PK       0.004000
     17 CAM          3.1050    -0.4940     0.4500 cc         1 5PK      -0.174000
     18 NAN          2.1560    -1.2420    -0.1860 na         1 5PK      -0.178500
     19 CAQ          2.4530    -2.5380     0.0050 cc         1 5PK       0.409400
     20 NAP          3.5490    -2.6640     0.7210 nd         1 5PK      -0.680000
     21 CAO          3.9710    -1.3970     1.0090 cd         1 5PK       0.269900
     22 H1          -2.6410     0.5220     1.7120 hc         1 5PK       0.043450
     23 H2          -2.0630    -1.1320     1.7790 hc         1 5PK       0.043450
     24 H3          -4.3380    -2.0150     1.6180 hc         1 5PK       0.039950
     25 H4          -4.2140    -0.9020     2.9660 hc         1 5PK       0.039950
     26 H5          -6.3030    -0.5190     1.6450 hc         1 5PK       0.040200
     27 H6          -5.2630     0.8940     1.6250 hc         1 5PK       0.040200
     28 H7          -5.4820    -1.1960    -0.5880 hc         1 5PK       0.039950
     29 H8          -6.0890     0.4460    -0.6590 hc         1 5PK       0.039950
     30 H9          -3.9270     0.2470    -1.8500 hc         1 5PK       0.043450
     31 H10         -3.8030     1.3540    -0.4960 hc         1 5PK       0.043450
     32 H11         -2.8900    -1.5580    -0.5020 hc         1 5PK       0.043700
     33 H12         -1.3250     1.0430    -0.3810 h1         1 5PK       0.079700
     34 H13         -1.5460    -0.8410    -2.4570 ho         1 5PK       0.439000
     35 H14         -0.1590    -0.6410     0.9160 hc         1 5PK       0.059700
     36 H15         -0.4340    -1.8690    -0.3080 hc         1 5PK       0.059700
     37 H16          1.0660    -0.6640    -1.8800 h1         1 5PK       0.088700
     38 H17          0.2240     2.2060    -1.5950 ha         1 5PK       0.130000
     39 H18          1.3560     4.2840    -0.8960 ha         1 5PK       0.116000
     40 H19          3.3840     4.2030     0.4970 ha         1 5PK       0.116000
     41 H20          4.3300     2.0300     1.2130 ha         1 5PK       0.124000
     42 H21          1.8590    -3.3470    -0.3910 h5         1 5PK       0.055100
     43 H22          4.8600    -1.2080     1.5910 h4         1 5PK       0.041100
@<TRIPOS>BOND
     1     1     2 1   
     2     1     6 1   
     3     1    22 1   
     4     1    23 1   
     5     2     3 1   
     6     2    24 1   
     7     2    25 1   
     8     3     4 1   
     9     3    26 1   
    10     3    27 1   
    11     4     5 1   
    12     4    28 1   
    13     4    29 1   
    14     5     6 1   
    15     5    30 1   
    16     5    31 1   
    17     6     7 1   
    18     6    32 1   
    19     7     8 1   
    20     7     9 1   
    21     7    33 1   
    22     8    34 1   
    23     9    10 1   
    24     9    35 1   
    25     9    36 1   
    26    10    11 1   
    27    10    18 1   
    28    10    37 1   
    29    11    12 ar  
    30    11    16 ar  
    31    12    13 ar  
    32    12    38 1   
    33    13    14 ar  
    34    13    39 1   
    35    14    15 ar  
    36    14    40 1   
    37    15    16 ar  
    38    15    41 1   
    39    16    17 1   
    40    17    18 1   
    41    17    21 2   
    42    18    19 1   
    43    19    20 2   
    44    19    42 1   
    45    20    21 1   
    46    21    43 1   
@<TRIPOS>SUBSTRUCTURE
     1 5PK         1 TEMP              0 ****  ****    0 ROOT
