@<TRIPOS>MOLECULE
5PL
  213   213     1     0     0
SMALL
No Charge or Current Charge


@<TRIPOS>ATOM
      1 OCO          2.8470    -6.7330    -5.3920 o          1 5PL      -0.504000
      2 CBL          2.7910    -6.0560    -4.3740 c          1 5PL       0.597100
      3 CBM          3.4350    -6.4580    -3.0470 c3         1 5PL      -0.140400
      4 OCL          2.1760    -4.8370    -4.2860 os         1 5PL      -0.438100
      5 CBN          4.8880    -5.9340    -2.9590 c3         1 5PL      -0.067400
      6 CBO          5.5860    -6.3000    -1.6310 c3         1 5PL      -0.076400
      7 CBP          7.0000    -5.6920    -1.5110 c3         1 5PL      -0.074400
      8 CAA          7.6810    -6.0090    -0.1620 c3         1 5PL      -0.074400
      9 CBR          9.0830    -5.3760    -0.0320 c3         1 5PL      -0.074400
     10 CBS          9.7610    -5.6780     1.3220 c3         1 5PL      -0.074400
     11 CBT         11.1560    -5.0310     1.4560 c3         1 5PL      -0.074400
     12 CAL         11.8290    -5.3240     2.8150 c3         1 5PL      -0.074400
     13 CAO         13.2190    -4.6650     2.9550 c3         1 5PL      -0.074400
     14 CAS         13.8890    -4.9510     4.3170 c3         1 5PL      -0.075400
     15 C7          15.2730    -4.2830     4.4620 c3         1 5PL      -0.074400
     16 CBI          1.5650    -4.2910    -5.4680 c3         1 5PL       0.149600
     17 CBH          1.0560    -2.8510    -5.1780 c3         1 5PL       0.126300
     18 CAW          0.2360    -2.3190    -6.3910 c3         1 5PL       0.236600
     19 CBV          3.9640    -0.9370    -3.7270 c3         1 5PL      -0.144400
     20 CBW          3.6740     0.3890    -2.9850 c3         1 5PL      -0.069400
     21 CBX          4.9170     1.2880    -2.8290 c3         1 5PL      -0.075400
     22 CBY          4.6170     2.5900    -2.0550 c3         1 5PL      -0.076400
     23 CAE          5.5580     4.7870    -1.0960 c3         1 5PL      -0.075400
     24 CAF          6.7990     5.6910    -0.9260 c3         1 5PL      -0.074400
     25 CAG          6.5040     6.9800    -0.1280 c3         1 5PL      -0.074400
     26 CAK          7.7440     7.8850     0.0370 c3         1 5PL      -0.074400
     27 CBK          7.4520     9.1710     0.8410 c3         1 5PL      -0.074400
     28 CBQ          8.6920    10.0780     1.0010 c3         1 5PL      -0.075400
     29 C13          8.4020    11.3630     1.8080 c3         1 5PL      -0.074400
     30 OCJ         -0.5710    -1.1690    -6.0660 os         1 5PL      -0.577400
     31 PCR          0.0480     0.2950    -5.7970 p5         1 5PL       1.398800
     32 OCI          1.2900     0.5240    -6.5900 o          1 5PL      -0.813500
     33 OCM         -0.9650     1.3510    -6.0850 o          1 5PL      -0.813500
     34 OCG          0.3430     0.1950    -4.2140 os         1 5PL      -0.582400
     35 CAN         -0.6800     0.5780    -3.2560 c3         1 5PL       0.176300
     36 CAM          0.0100     1.0140    -1.9400 c3         1 5PL       0.152600
     37 CBZ          5.8570     3.4930    -1.8850 c3         1 5PL      -0.073400
     38 O1           0.4000    -0.1510    -1.1880 os         1 5PL      -0.457000
     39 OCK          2.2070    -1.9910    -4.9830 os         1 5PL      -0.426100
     40 C1           0.8180     0.0730     0.1720 c6         1 5PL       0.368300
     41 OCN          2.3250    -2.4040    -2.7160 o          1 5PL      -0.526000
     42 C2           1.3070    -1.2490     0.8370 c6         1 5PL       0.100700
     43 N2           2.4540    -1.8480     0.1160 ns         1 5PL      -0.489900
     44 CAQ          3.6270    -2.2710     0.6890 c          1 5PL       0.609100
     45 OCP          3.8700    -2.1230     1.8770 o          1 5PL      -0.641100
     46 CAR          4.6120    -2.9270    -0.2670 c3         1 5PL      -0.180100
     47 C3           0.1100    -2.2400     0.9600 c6         1 5PL       0.156300
     48 O3           0.4860    -3.4580     1.6280 oh         1 5PL      -0.648000
     49 C4          -1.0720    -1.5790     1.7290 c6         1 5PL       0.103300
     50 O4          -2.1830    -2.5000     1.8000 oh         1 5PL      -0.718000
     51 C5          -1.4570    -0.2440     1.0190 c6         1 5PL       0.136300
     52 C6          -2.5860     0.5450     1.7610 c3         1 5PL       0.167600
     53 O6          -2.8960     1.8080     1.1420 oh         1 5PL      -0.704000
     54 O5          -0.2890     0.6180     0.9250 os         1 5PL      -0.471000
     55 CAP         -1.7600    -0.5180    -2.9830 c          1 5PL       0.597100
     56 OCH         -1.6170    -1.7110    -3.2270 o          1 5PL      -0.577100
     57 NCB         -2.9550    -0.0420    -2.4760 ns         1 5PL      -0.518900
     58 CAX         -4.0940    -0.8890    -2.1300 c3         1 5PL       0.109000
     59 CAY         -5.2280    -0.0730    -1.4840 c3         1 5PL      -0.097400
     60 CAZ         -6.4540    -0.9350    -1.1130 c3         1 5PL      -0.073400
     61 CBA         -7.5950    -0.1140    -0.4740 c3         1 5PL      -0.074400
     62 CBB         -8.8320    -0.9680    -0.1200 c3         1 5PL      -0.075400
     63 CBC         -9.9770    -0.1400     0.5050 c3         1 5PL      -0.074400
     64 CBD        -11.2240    -0.9870     0.8410 c3         1 5PL      -0.074400
     65 CBE        -12.3710    -0.1530     1.4530 c3         1 5PL      -0.074400
     66 CBF        -13.6260    -0.9940     1.7760 c3         1 5PL      -0.074400
     67 CBG        -14.7730    -0.1550     2.3800 c3         1 5PL      -0.074400
     68 CAT        -16.0330    -0.9890     2.6960 c3         1 5PL      -0.074400
     69 CAU        -17.1790    -0.1460     3.2970 c3         1 5PL      -0.074400
     70 CAV        -18.4430    -0.9760     3.6090 c3         1 5PL      -0.074400
     71 CBJ        -19.5860    -0.1310     4.2120 c3         1 5PL      -0.074400
     72 C8          15.9390    -4.5660     5.8310 c3         1 5PL      -0.071400
     73 C9          17.3770    -4.0000     5.9880 c3         1 5PL      -0.059700
     74 C10         17.4340    -2.4560     5.8820 c3         1 5PL      -0.086600
     75 C12         18.0170    -4.4810     7.3100 c3         1 5PL      -0.086600
     76 C14          9.6470    12.2690     1.9660 c3         1 5PL      -0.071400
     77 C15          9.3820    13.6250     2.6780 c3         1 5PL      -0.060700
     78 C16          8.8830    13.4560     4.1330 c3         1 5PL      -0.086600
     79 C17         10.6360    14.5270     2.6320 c3         1 5PL      -0.086600
     80 C18        -20.8520    -0.9590     4.5230 c3         1 5PL      -0.074400
     81 C19        -21.9930    -0.1120     5.1280 c3         1 5PL      -0.074400
     82 C20        -23.2600    -0.9390     5.4400 c3         1 5PL      -0.075400
     83 C21        -24.4010    -0.0910     6.0450 c3         1 5PL      -0.075400
     84 C22        -25.6640    -0.9150     6.3590 c3         1 5PL      -0.088100
     85 HBM1         2.8760    -5.9930    -2.2270 hc         1 5PL       0.072200
     86 HBM2         3.4340    -7.5500    -2.9550 hc         1 5PL       0.072200
     87 HBN1         5.4710    -6.3380    -3.7970 hc         1 5PL       0.050700
     88 HBN2         4.8810    -4.8420    -3.0750 hc         1 5PL       0.050700
     89 HBI1         2.2840    -4.2540    -6.2970 h1         1 5PL       0.053700
     90 HBI2         0.7210    -4.9200    -5.7800 h1         1 5PL       0.053700
     91 HBO1         4.9720    -5.9540    -0.7910 hc         1 5PL       0.038200
     92 HBO2         5.6520    -7.3920    -1.5470 hc         1 5PL       0.038200
     93 HBP1         7.6260    -6.0690    -2.3290 hc         1 5PL       0.038200
     94 HBP2         6.9360    -4.6040    -1.6330 hc         1 5PL       0.038200
     95 HAA1         7.0460    -5.6450     0.6560 hc         1 5PL       0.038200
     96 HAA2         7.7630    -7.0970    -0.0450 hc         1 5PL       0.038200
     97 HBR1         9.7210    -5.7440    -0.8460 hc         1 5PL       0.036200
     98 HBR2         8.9990    -4.2890    -0.1570 hc         1 5PL       0.036200
     99 HBS1         9.1170    -5.3180     2.1340 hc         1 5PL       0.037200
    100 HBS2         9.8540    -6.7650     1.4440 hc         1 5PL       0.037200
    101 HBT1        11.8030    -5.3940     0.6480 hc         1 5PL       0.036200
    102 HBT2        11.0630    -3.9450     1.3280 hc         1 5PL       0.036200
    103 HAL1        11.1790    -4.9670     3.6230 hc         1 5PL       0.037200
    104 HAL2        11.9310    -6.4090     2.9410 hc         1 5PL       0.037200
    105 HAO1        13.8720    -5.0250     2.1500 hc         1 5PL       0.036200
    106 HAO2        13.1180    -3.5800     2.8250 hc         1 5PL       0.036200
    107 HAS1        13.2330    -4.5970     5.1230 hc         1 5PL       0.036700
    108 HAS2        13.9960    -6.0360     4.4450 hc         1 5PL       0.036700
    109 H71C        15.9310    -4.6400     3.6600 hc         1 5PL       0.037200
    110 H72C        15.1550    -3.2010     4.3260 hc         1 5PL       0.037200
    111 H81C        15.3020    -4.1630     6.6290 hc         1 5PL       0.037200
    112 H82C        15.9730    -5.6530     5.9780 hc         1 5PL       0.037200
    113 HBH          0.4000    -2.8670    -4.2990 h1         1 5PL       0.101700
    114 HAW1         0.9200    -2.0930    -7.2200 h1         1 5PL       0.039200
    115 HAW2        -0.4260    -3.1230    -6.7390 h1         1 5PL       0.039200
    116 HBV1         4.2550    -0.7130    -4.7590 hc         1 5PL       0.085700
    117 HBV2         4.7840    -1.4590    -3.2230 hc         1 5PL       0.085700
    118 HBW1         2.8950     0.9410    -3.5260 hc         1 5PL       0.042700
    119 HBW2         3.2730     0.1640    -1.9890 hc         1 5PL       0.042700
    120 HBX1         5.7020     0.7300    -2.3030 hc         1 5PL       0.039700
    121 HBX2         5.3100     1.5380    -3.8220 hc         1 5PL       0.039700
    122 HBY1         3.8330     3.1490    -2.5810 hc         1 5PL       0.038200
    123 HBY2         4.2180     2.3360    -1.0650 hc         1 5PL       0.038200
    124 HBZ1         6.6440     2.9300    -1.3670 hc         1 5PL       0.036200
    125 HBZ2         6.2500     3.7570    -2.8750 hc         1 5PL       0.036200
    126 HAE1         5.1680     4.5220    -0.1050 hc         1 5PL       0.038700
    127 HAE2         4.7700     5.3500    -1.6110 hc         1 5PL       0.038700
    128 HAF1         7.5890     5.1250    -0.4170 hc         1 5PL       0.035700
    129 HAF2         7.1860     5.9610    -1.9170 hc         1 5PL       0.035700
    130 HAG1         5.7110     7.5440    -0.6340 hc         1 5PL       0.037700
    131 HAG2         6.1210     6.7090     0.8640 hc         1 5PL       0.037700
    132 HAK1         8.5390     7.3200     0.5390 hc         1 5PL       0.036200
    133 HAK2         8.1240     8.1590    -0.9560 hc         1 5PL       0.036200
    134 HBK1         6.6550     9.7350     0.3410 hc         1 5PL       0.037200
    135 HBK2         7.0760     8.8970     1.8350 hc         1 5PL       0.037200
    136 HBQ1         9.4900     9.5130     1.4990 hc         1 5PL       0.036200
    137 HBQ2         9.0670    10.3540     0.0070 hc         1 5PL       0.036200
    138 H131         7.6050    11.9290     1.3100 hc         1 5PL       0.037700
    139 H132         8.0260    11.0770     2.7970 hc         1 5PL       0.037700
    140 H141        10.4240    11.7200     2.5130 hc         1 5PL       0.036700
    141 H142        10.0540    12.4730     0.9680 hc         1 5PL       0.036700
    142 HAN         -1.2210     1.4600    -3.6210 h1         1 5PL       0.052700
    143 HAM1         0.8780     1.6470    -2.1620 h1         1 5PL       0.032700
    144 HAM2        -0.7060     1.6190    -1.3680 h1         1 5PL       0.032700
    145 H1           1.6490     0.7960     0.1780 h2         1 5PL       0.072700
    146 H2           1.6350    -0.9890     1.8540 h1         1 5PL       0.089700
    147 HA           2.3450    -2.0340    -0.8800 hn         1 5PL       0.370500
    148 H3          -0.2400    -2.4720    -0.0580 h1         1 5PL       0.088700
    149 HAR1         4.0840    -3.6400    -0.9090 hc         1 5PL       0.058033
    150 HAR2         4.9580    -2.1700    -0.9780 hc         1 5PL       0.058033
    151 HAR3         5.4610    -3.3840     0.2530 hc         1 5PL       0.058033
    152 HB          -0.3690    -3.8630     1.8990 ho         1 5PL       0.448000
    153 H4          -0.7260    -1.3360     2.7460 h1         1 5PL       0.041700
    154 HC          -2.7300    -2.2490     2.5810 ho         1 5PL       0.497000
    155 H5          -1.8230    -0.4700     0.0080 h1         1 5PL       0.088700
    156 H61C        -3.4870    -0.0800     1.7900 h1         1 5PL       0.017700
    157 H62C        -2.2650     0.7080     2.7990 h1         1 5PL       0.017700
    158 H6          -3.4980     2.2880     1.7550 ho         1 5PL       0.495000
    159 HCB         -3.0270     0.9550    -2.3050 hn         1 5PL       0.309500
    160 HAX1        -4.4620    -1.3770    -3.0420 h1         1 5PL       0.047700
    161 HAX2        -3.7580    -1.6680    -1.4320 h1         1 5PL       0.047700
    162 HAY1        -4.8480     0.4200    -0.5810 hc         1 5PL       0.043200
    163 HAY2        -5.5410     0.7180    -2.1770 hc         1 5PL       0.043200
    164 HAZ1        -6.8300    -1.4330    -2.0150 hc         1 5PL       0.039700
    165 HAZ2        -6.1430    -1.7240    -0.4160 hc         1 5PL       0.039700
    166 HBA1        -7.2220     0.3750     0.4360 hc         1 5PL       0.034700
    167 HBA2        -7.8950     0.6840    -1.1650 hc         1 5PL       0.034700
    168 HBB1        -9.2000    -1.4610    -1.0290 hc         1 5PL       0.037200
    169 HBB2        -8.5370    -1.7610     0.5780 hc         1 5PL       0.037200
    170 HBC1        -9.6130     0.3450     1.4190 hc         1 5PL       0.035700
    171 HBC2       -10.2630     0.6600    -0.1900 hc         1 5PL       0.035700
    172 HBD1       -11.5830    -1.4770    -0.0720 hc         1 5PL       0.036700
    173 HBD2       -10.9420    -1.7820     1.5430 hc         1 5PL       0.036700
    174 HBE1       -12.0140     0.3300     2.3720 hc         1 5PL       0.036700
    175 HBE2       -12.6450     0.6480     0.7550 hc         1 5PL       0.036700
    176 HBF1       -13.9790    -1.4800     0.8590 hc         1 5PL       0.037200
    177 HBF2       -13.3540    -1.7920     2.4790 hc         1 5PL       0.037200
    178 HBG1       -14.4210     0.3280     3.3000 hc         1 5PL       0.036700
    179 HBG2       -15.0390     0.6470     1.6800 hc         1 5PL       0.036700
    180 HAT1       -16.3860    -1.4720     1.7750 hc         1 5PL       0.037200
    181 HAT2       -15.7690    -1.7910     3.3970 hc         1 5PL       0.037200
    182 HAU1       -16.8270     0.3340     4.2180 hc         1 5PL       0.036700
    183 HAU2       -17.4400     0.6570     2.5970 hc         1 5PL       0.036700
    184 HAV1       -18.7970    -1.4550     2.6870 hc         1 5PL       0.036700
    185 HAV2       -18.1820    -1.7810     4.3080 hc         1 5PL       0.036700
    186 HBJ1       -19.2320     0.3460     5.1350 hc         1 5PL       0.036700
    187 HBJ2       -19.8450     0.6750     3.5140 hc         1 5PL       0.036700
    188 H181       -21.2070    -1.4340     3.6000 hc         1 5PL       0.036700
    189 H182       -20.5930    -1.7650     5.2200 hc         1 5PL       0.036700
    190 H9          17.9860    -4.4070     5.1700 hc         1 5PL       0.043700
    191 H101        16.7820    -1.9890     6.6310 hc         1 5PL       0.030867
    192 H102        18.4570    -2.0960     6.0470 hc         1 5PL       0.030867
    193 H103        17.1220    -2.1140     4.8890 hc         1 5PL       0.030867
    194 H121        18.0300    -5.5760     7.3600 hc         1 5PL       0.030867
    195 H122        19.0520    -4.1280     7.3920 hc         1 5PL       0.030867
    196 H123        17.4560    -4.1040     8.1750 hc         1 5PL       0.030867
    197 H15          8.5930    14.1450     2.1190 hc         1 5PL       0.043700
    198 H161         8.7540    14.4340     4.6130 hc         1 5PL       0.030867
    199 H162         7.9130    12.9460     4.1650 hc         1 5PL       0.030867
    200 H163         9.5990    12.8760     4.7270 hc         1 5PL       0.030867
    201 H171        10.9560    14.6960     1.5970 hc         1 5PL       0.030867
    202 H172        10.4290    15.5040     3.0840 hc         1 5PL       0.030867
    203 H173        11.4690    14.0660     3.1770 hc         1 5PL       0.030867
    204 H191       -21.6380     0.3640     6.0510 hc         1 5PL       0.036700
    205 H192       -22.2520     0.6940     4.4310 hc         1 5PL       0.036700
    206 H201       -23.6160    -1.4150     4.5180 hc         1 5PL       0.036700
    207 H202       -23.0010    -1.7450     6.1380 hc         1 5PL       0.036700
    208 H211       -24.0490     0.3860     6.9680 hc         1 5PL       0.036700
    209 H212       -24.6650     0.7140     5.3480 hc         1 5PL       0.036700
    210 H221       -26.0610    -1.3790     5.4480 hc         1 5PL       0.031033
    211 H222       -25.4410    -1.7080     7.0830 hc         1 5PL       0.031033
    212 H223       -26.4440    -0.2720     6.7850 hc         1 5PL       0.031033
    213 CBU          2.7430    -1.8560    -3.7270 c          1 5PL       0.638100
@<TRIPOS>BOND
     1     1     2 2   
     2     2     3 1   
     3     2     4 1   
     4     3     5 1   
     5     3    85 1   
     6     3    86 1   
     7     4    16 1   
     8     5     6 1   
     9     5    87 1   
    10     5    88 1   
    11     6     7 1   
    12     6    91 1   
    13     6    92 1   
    14     7     8 1   
    15     7    93 1   
    16     7    94 1   
    17     8     9 1   
    18     8    95 1   
    19     8    96 1   
    20     9    10 1   
    21     9    97 1   
    22     9    98 1   
    23    10    11 1   
    24    10    99 1   
    25    10   100 1   
    26    11    12 1   
    27    11   101 1   
    28    11   102 1   
    29    12    13 1   
    30    12   103 1   
    31    12   104 1   
    32    13    14 1   
    33    13   105 1   
    34    13   106 1   
    35    14    15 1   
    36    14   107 1   
    37    14   108 1   
    38    15    72 1   
    39    15   109 1   
    40    15   110 1   
    41    16    17 1   
    42    16    89 1   
    43    16    90 1   
    44    17    18 1   
    45    17    39 1   
    46    17   113 1   
    47    18    30 1   
    48    18   114 1   
    49    18   115 1   
    50    19    20 1   
    51    19   116 1   
    52    19   117 1   
    53    19   213 1   
    54    20    21 1   
    55    20   118 1   
    56    20   119 1   
    57    21    22 1   
    58    21   120 1   
    59    21   121 1   
    60    22    37 1   
    61    22   122 1   
    62    22   123 1   
    63    23    24 1   
    64    23    37 1   
    65    23   126 1   
    66    23   127 1   
    67    24    25 1   
    68    24   128 1   
    69    24   129 1   
    70    25    26 1   
    71    25   130 1   
    72    25   131 1   
    73    26    27 1   
    74    26   132 1   
    75    26   133 1   
    76    27    28 1   
    77    27   134 1   
    78    27   135 1   
    79    28    29 1   
    80    28   136 1   
    81    28   137 1   
    82    29    76 1   
    83    29   138 1   
    84    29   139 1   
    85    30    31 1   
    86    31    32 1   
    87    31    33 1   
    88    31    34 1   
    89    34    35 1   
    90    35    36 1   
    91    35    55 1   
    92    35   142 1   
    93    36    38 1   
    94    36   143 1   
    95    36   144 1   
    96    37   124 1   
    97    37   125 1   
    98    38    40 1   
    99    39   213 1   
   100    40    42 1   
   101    40    54 1   
   102    40   145 1   
   103    41   213 2   
   104    42    43 1   
   105    42    47 1   
   106    42   146 1   
   107    43    44 1   
   108    43   147 1   
   109    44    45 2   
   110    44    46 1   
   111    46   149 1   
   112    46   150 1   
   113    46   151 1   
   114    47    48 1   
   115    47    49 1   
   116    47   148 1   
   117    48   152 1   
   118    49    50 1   
   119    49    51 1   
   120    49   153 1   
   121    50   154 1   
   122    51    52 1   
   123    51    54 1   
   124    51   155 1   
   125    52    53 1   
   126    52   156 1   
   127    52   157 1   
   128    53   158 1   
   129    55    56 2   
   130    55    57 1   
   131    57    58 1   
   132    57   159 1   
   133    58    59 1   
   134    58   160 1   
   135    58   161 1   
   136    59    60 1   
   137    59   162 1   
   138    59   163 1   
   139    60    61 1   
   140    60   164 1   
   141    60   165 1   
   142    61    62 1   
   143    61   166 1   
   144    61   167 1   
   145    62    63 1   
   146    62   168 1   
   147    62   169 1   
   148    63    64 1   
   149    63   170 1   
   150    63   171 1   
   151    64    65 1   
   152    64   172 1   
   153    64   173 1   
   154    65    66 1   
   155    65   174 1   
   156    65   175 1   
   157    66    67 1   
   158    66   176 1   
   159    66   177 1   
   160    67    68 1   
   161    67   178 1   
   162    67   179 1   
   163    68    69 1   
   164    68   180 1   
   165    68   181 1   
   166    69    70 1   
   167    69   182 1   
   168    69   183 1   
   169    70    71 1   
   170    70   184 1   
   171    70   185 1   
   172    71    80 1   
   173    71   186 1   
   174    71   187 1   
   175    72    73 1   
   176    72   111 1   
   177    72   112 1   
   178    73    74 1   
   179    73    75 1   
   180    73   190 1   
   181    74   191 1   
   182    74   192 1   
   183    74   193 1   
   184    75   194 1   
   185    75   195 1   
   186    75   196 1   
   187    76    77 1   
   188    76   140 1   
   189    76   141 1   
   190    77    78 1   
   191    77    79 1   
   192    77   197 1   
   193    78   198 1   
   194    78   199 1   
   195    78   200 1   
   196    79   201 1   
   197    79   202 1   
   198    79   203 1   
   199    80    81 1   
   200    80   188 1   
   201    80   189 1   
   202    81    82 1   
   203    81   204 1   
   204    81   205 1   
   205    82    83 1   
   206    82   206 1   
   207    82   207 1   
   208    83    84 1   
   209    83   208 1   
   210    83   209 1   
   211    84   210 1   
   212    84   211 1   
   213    84   212 1   
@<TRIPOS>SUBSTRUCTURE
     1 5PL         1 TEMP              0 ****  ****    0 ROOT
