@<TRIPOS>MOLECULE
5PL
  213   213     1     0     0
SMALL
abcg2


@<TRIPOS>ATOM
      1 OCO          4.8930    -6.0370    -4.5060 o          1 5PL      -0.504000
      2 CBL          4.4830    -5.2880    -3.6550 c          1 5PL       0.597100
      3 CBM          5.1890    -4.9570    -2.3680 c3         1 5PL      -0.140400
      4 OCL          3.3200    -4.6530    -3.7400 os         1 5PL      -0.438100
      5 CBN          6.6560    -5.3520    -2.3540 c3         1 5PL      -0.067400
      6 CBO          7.3300    -4.9920    -1.0360 c3         1 5PL      -0.076400
      7 CBP          8.8160    -5.3260    -1.0260 c3         1 5PL      -0.074400
      8 CAA          9.5060    -4.9820     0.2880 c3         1 5PL      -0.074400
      9 CBR         10.9980    -5.2870     0.2760 c3         1 5PL      -0.074400
     10 CBS         11.6970    -4.9550     1.5890 c3         1 5PL      -0.074400
     11 CBT         13.1930    -5.2430     1.5620 c3         1 5PL      -0.074400
     12 CAL         13.8950    -4.9170     2.8730 c3         1 5PL      -0.074400
     13 CAO         15.3940    -5.1920     2.8380 c3         1 5PL      -0.074400
     14 CAS         16.0980    -4.8690     4.1490 c3         1 5PL      -0.075400
     15 C7          17.5990    -5.1270     4.1090 c3         1 5PL      -0.074400
     16 CBI          2.5230    -4.8270    -4.9080 c3         1 5PL       0.149600
     17 CBH          1.4140    -3.7970    -4.8410 c3         1 5PL       0.126300
     18 CAW          0.5220    -3.8720    -6.0670 c3         1 5PL       0.236600
     19 CBV          2.6730    -0.4620    -3.8790 c3         1 5PL      -0.144400
     20 CBW          3.1260     0.2140    -2.5970 c3         1 5PL      -0.069400
     21 CBX          3.6030     1.6420    -2.8240 c3         1 5PL      -0.075400
     22 CBY          4.0790     2.3000    -1.5350 c3         1 5PL      -0.076400
     23 CAE          5.0520     4.3730    -0.4330 c3         1 5PL      -0.075400
     24 CAF          5.5150     5.8140    -0.6100 c3         1 5PL      -0.074400
     25 CAG          6.0360     6.4380     0.6790 c3         1 5PL      -0.074400
     26 CAK          6.5000     7.8790     0.5090 c3         1 5PL      -0.074400
     27 CBK          7.0280     8.4960     1.7980 c3         1 5PL      -0.074400
     28 CBQ          7.4930     9.9370     1.6330 c3         1 5PL      -0.075400
     29 C13          8.0320    10.5460     2.9220 c3         1 5PL      -0.074400
     30 OCJ         -0.6850    -3.1740    -5.8850 os         1 5PL      -0.577400
     31 PCR         -0.8510    -1.5630    -6.1500 p5         1 5PL       1.398800
     32 OCI          0.2170    -1.0960    -7.0850 o          1 5PL      -0.813500
     33 OCM         -2.3060    -1.3530    -6.4350 o          1 5PL      -0.813500
     34 OCG         -0.5230    -0.9230    -4.6600 os         1 5PL      -0.582400
     35 CAN         -1.5460    -0.2600    -3.9700 c3         1 5PL       0.176300
     36 CAM         -0.9740     0.5840    -2.8370 c3         1 5PL       0.152600
     37 CBZ          4.5450     3.7380    -1.7220 c3         1 5PL      -0.073400
     38 O1          -0.6920    -0.2170    -1.7120 os         1 5PL      -0.457000
     39 OCK          2.0020    -2.4970    -4.8110 os         1 5PL      -0.426100
     40 C1          -0.4780     0.4720    -0.5210 c6         1 5PL       0.368300
     41 OCN          1.7220    -2.2780    -2.6070 o          1 5PL      -0.526000
     42 C2          -0.0500    -0.5490     0.5320 c6         1 5PL       0.100700
     43 N2           1.1630    -1.2240     0.1530 ns         1 5PL      -0.489900
     44 CAQ          2.2320    -1.3240     0.9630 c          1 5PL       0.609100
     45 OCP          2.2770    -0.8430     2.0890 o          1 5PL      -0.641100
     46 CAR          3.4140    -2.0680     0.3900 c3         1 5PL      -0.180100
     47 C3          -1.1990    -1.5180     0.8010 c6         1 5PL       0.156300
     48 O3          -0.8010    -2.3900     1.8270 oh         1 5PL      -0.648000
     49 C4          -2.4450    -0.7270     1.1930 c6         1 5PL       0.103300
     50 O4          -3.5080    -1.6510     1.2970 oh         1 5PL      -0.718000
     51 C5          -2.7550     0.3580     0.1560 c6         1 5PL       0.136300
     52 C6          -3.8610     1.2790     0.6200 c3         1 5PL       0.167600
     53 O6          -4.1840     2.1720    -0.4180 oh         1 5PL      -0.704000
     54 O5          -1.6100     1.1640    -0.0840 os         1 5PL      -0.471000
     55 CAP         -2.5700    -1.2520    -3.4140 c          1 5PL       0.597100
     56 OCH         -2.3080    -2.4210    -3.2030 o          1 5PL      -0.577100
     57 NCB         -3.7680    -0.7080    -3.1430 ns         1 5PL      -0.518900
     58 CAX         -4.8200    -1.4320    -2.4600 c3         1 5PL       0.109000
     59 CAY         -6.0180    -0.5310    -2.2140 c3         1 5PL      -0.097400
     60 CAZ         -7.0960    -1.2320    -1.4000 c3         1 5PL      -0.073400
     61 CBA         -8.3250    -0.3620    -1.1720 c3         1 5PL      -0.074400
     62 CBB         -9.4140    -1.0620    -0.3690 c3         1 5PL      -0.075400
     63 CBC        -10.6510    -0.2000    -0.1570 c3         1 5PL      -0.074400
     64 CBD        -11.7450    -0.9030     0.6380 c3         1 5PL      -0.074400
     65 CBE        -12.9860    -0.0430     0.8440 c3         1 5PL      -0.074400
     66 CBF        -14.0810    -0.7470     1.6350 c3         1 5PL      -0.074400
     67 CBG        -15.3230     0.1120     1.8390 c3         1 5PL      -0.074400
     68 CAT        -16.4180    -0.5920     2.6300 c3         1 5PL      -0.074400
     69 CAU        -17.6610     0.2650     2.8350 c3         1 5PL      -0.074400
     70 CAV        -18.7540    -0.4400     3.6270 c3         1 5PL      -0.074400
     71 CBJ        -19.9970     0.4160     3.8340 c3         1 5PL      -0.074400
     72 C8          18.2890    -4.7940     5.4260 c3         1 5PL      -0.071400
     73 C9          19.7880    -5.0970     5.4700 c3         1 5PL      -0.059700
     74 C10         20.5740    -4.2740     4.4540 c3         1 5PL      -0.086600
     75 C12         20.3330    -4.8620     6.8750 c3         1 5PL      -0.086600
     76 C14          8.4990    11.9860     2.7480 c3         1 5PL      -0.071400
     77 C15          8.9830    12.6690     4.0290 c3         1 5PL      -0.060700
     78 C16         10.1910    11.9640     4.6400 c3         1 5PL      -0.086600
     79 C17          9.3060    14.1350     3.7580 c3         1 5PL      -0.086600
     80 C18        -21.0890    -0.2910     4.6280 c3         1 5PL      -0.074400
     81 C19        -22.3330     0.5630     4.8360 c3         1 5PL      -0.074400
     82 C20        -23.4220    -0.1460     5.6310 c3         1 5PL      -0.075400
     83 C21        -24.6690     0.7040     5.8400 c3         1 5PL      -0.075400
     84 C22        -25.7480    -0.0190     6.6350 c3         1 5PL      -0.088100
     85 HBM1         5.0760    -3.8880    -2.1710 hc         1 5PL       0.072200
     86 HBM2         4.6500    -5.4620    -1.5580 hc         1 5PL       0.072200
     87 HBN1         6.7570    -6.4250    -2.5330 hc         1 5PL       0.050700
     88 HBN2         7.1780    -4.8510    -3.1740 hc         1 5PL       0.050700
     89 HBI1         3.1280    -4.6940    -5.8090 h1         1 5PL       0.053700
     90 HBI2         2.0940    -5.8320    -4.9310 h1         1 5PL       0.053700
     91 HBO1         7.1990    -3.9220    -0.8370 hc         1 5PL       0.038200
     92 HBO2         6.8300    -5.5150    -0.2140 hc         1 5PL       0.038200
     93 HBP1         8.9490    -6.3930    -1.2380 hc         1 5PL       0.038200
     94 HBP2         9.3100    -4.7920    -1.8450 hc         1 5PL       0.038200
     95 HAA1         9.3560    -3.9200     0.5120 hc         1 5PL       0.038200
     96 HAA2         9.0270    -5.5330     1.1060 hc         1 5PL       0.038200
     97 HBR1        11.1490    -6.3470     0.0430 hc         1 5PL       0.036200
     98 HBR2        11.4740    -4.7300    -0.5390 hc         1 5PL       0.036200
     99 HBS1        11.5370    -3.8970     1.8290 hc         1 5PL       0.037200
    100 HBS2        11.2310    -5.5220     2.4020 hc         1 5PL       0.037200
    101 HBT1        13.3530    -6.2990     1.3160 hc         1 5PL       0.036200
    102 HBT2        13.6560    -4.6710     0.7500 hc         1 5PL       0.036200
    103 HAL1        13.7280    -3.8640     3.1240 hc         1 5PL       0.037200
    104 HAL2        13.4390    -5.4960     3.6840 hc         1 5PL       0.037200
    105 HAO1        15.5620    -6.2450     2.5830 hc         1 5PL       0.036200
    106 HAO2        15.8490    -4.6110     2.0280 hc         1 5PL       0.036200
    107 HAS1        15.9210    -3.8190     4.4080 hc         1 5PL       0.036700
    108 HAS2        15.6490    -5.4570     4.9570 hc         1 5PL       0.036700
    109 H71C        17.7790    -6.1790     3.8570 hc         1 5PL       0.037200
    110 H72C        18.0380    -4.5430     3.2930 hc         1 5PL       0.037200
    111 H81C        18.1370    -3.7330     5.6580 hc         1 5PL       0.037200
    112 H82C        17.7950    -5.3510     6.2300 hc         1 5PL       0.037200
    113 HBH          0.8030    -3.9580    -3.9500 h1         1 5PL       0.101700
    114 HAW1         1.0650    -3.5200    -6.9490 h1         1 5PL       0.039200
    115 HAW2         0.2600    -4.9190    -6.2390 h1         1 5PL       0.039200
    116 HBV1         1.9070     0.1380    -4.3810 hc         1 5PL       0.085700
    117 HBV2         3.5010    -0.5390    -4.5900 hc         1 5PL       0.085700
    118 HBW1         2.3080     0.2200    -1.8740 hc         1 5PL       0.042700
    119 HBW2         3.9320    -0.3670    -2.1380 hc         1 5PL       0.042700
    120 HBX1         4.4140     1.6510    -3.5590 hc         1 5PL       0.039700
    121 HBX2         2.7900     2.2350    -3.2590 hc         1 5PL       0.039700
    122 HBY1         3.2700     2.2730    -0.7960 hc         1 5PL       0.038200
    123 HBY2         4.8960     1.7060    -1.1100 hc         1 5PL       0.038200
    124 HBZ1         5.3390     3.7680    -2.4760 hc         1 5PL       0.036200
    125 HBZ2         3.7210     4.3380    -2.1250 hc         1 5PL       0.036200
    126 HAE1         5.8780     3.7720    -0.0360 hc         1 5PL       0.038700
    127 HAE2         4.2600     4.3370     0.3230 hc         1 5PL       0.038700
    128 HAF1         6.3010     5.8520    -1.3730 hc         1 5PL       0.035700
    129 HAF2         4.6870     6.4180    -0.9970 hc         1 5PL       0.035700
    130 HAG1         5.2520     6.3970     1.4430 hc         1 5PL       0.037700
    131 HAG2         6.8650     5.8330     1.0640 hc         1 5PL       0.037700
    132 HAK1         7.2810     7.9210    -0.2580 hc         1 5PL       0.036200
    133 HAK2         5.6700     8.4860     0.1300 hc         1 5PL       0.036200
    134 HBK1         6.2480     8.4520     2.5660 hc         1 5PL       0.037200
    135 HBK2         7.8590     7.8880     2.1760 hc         1 5PL       0.037200
    136 HBQ1         8.2700     9.9820     0.8610 hc         1 5PL       0.036200
    137 HBQ2         6.6620    10.5470     1.2610 hc         1 5PL       0.036200
    138 H131         7.2530    10.5070     3.6930 hc         1 5PL       0.037700
    139 H132         8.8550     9.9250     3.2900 hc         1 5PL       0.037700
    140 H141         9.3050    12.0190     2.0030 hc         1 5PL       0.036700
    141 H142         7.6760    12.5750     2.3270 hc         1 5PL       0.036700
    142 HAN         -2.0620     0.4440    -4.6330 h1         1 5PL       0.052700
    143 HAM1        -0.0710     1.0990    -3.1900 h1         1 5PL       0.032700
    144 HAM2        -1.7110     1.3560    -2.5940 h1         1 5PL       0.032700
    145 H1           0.3000     1.2380    -0.6420 h2         1 5PL       0.072700
    146 H2           0.1610     0.0070     1.4490 h1         1 5PL       0.089700
    147 HA           1.2200    -1.6190    -0.7790 hn         1 5PL       0.370500
    148 H3          -1.4210    -2.0750    -0.1220 h1         1 5PL       0.088700
    149 HAR1         3.2240    -2.5090    -0.5850 hc         1 5PL       0.058033
    150 HAR2         4.2560    -1.3830     0.2970 hc         1 5PL       0.058033
    151 HAR3         3.7120    -2.8580     1.0790 hc         1 5PL       0.058033
    152 HB          -1.5220    -3.0090     1.9830 ho         1 5PL       0.448000
    153 H4          -2.2460    -0.2470     2.1620 h1         1 5PL       0.041700
    154 HC          -4.1520    -1.3260     1.9320 ho         1 5PL       0.497000
    155 H5          -3.0760    -0.1320    -0.7700 h1         1 5PL       0.088700
    156 H61C        -4.7260     0.6650     0.8990 h1         1 5PL       0.017700
    157 H62C        -3.5350     1.8090     1.5260 h1         1 5PL       0.017700
    158 H6          -4.9330     2.7020    -0.1310 ho         1 5PL       0.495000
    159 HCB         -3.9290     0.2610    -3.3660 hn         1 5PL       0.309500
    160 HAX1        -5.1230    -2.3020    -3.0500 h1         1 5PL       0.047700
    161 HAX2        -4.4450    -1.8120    -1.5040 h1         1 5PL       0.047700
    162 HAY1        -5.6910     0.3720    -1.6890 hc         1 5PL       0.043200
    163 HAY2        -6.4330    -0.2020    -3.1730 hc         1 5PL       0.043200
    164 HAZ1        -7.3940    -2.1560    -1.9070 hc         1 5PL       0.039700
    165 HAZ2        -6.6780    -1.5350    -0.4330 hc         1 5PL       0.039700
    166 HBA1        -8.0290     0.5590    -0.6560 hc         1 5PL       0.034700
    167 HBA2        -8.7320    -0.0490    -2.1400 hc         1 5PL       0.034700
    168 HBB1        -9.7000    -1.9880    -0.8810 hc         1 5PL       0.037200
    169 HBB2        -9.0100    -1.3670     0.6030 hc         1 5PL       0.037200
    170 HBC1       -10.3670     0.7250     0.3580 hc         1 5PL       0.035700
    171 HBC2       -11.0510     0.1070    -1.1300 hc         1 5PL       0.035700
    172 HBD1       -12.0260    -1.8290     0.1250 hc         1 5PL       0.036700
    173 HBD2       -11.3480    -1.2060     1.6130 hc         1 5PL       0.036700
    174 HBE1       -12.7060     0.8830     1.3570 hc         1 5PL       0.036700
    175 HBE2       -13.3820     0.2610    -0.1320 hc         1 5PL       0.036700
    176 HBF1       -14.3610    -1.6730     1.1210 hc         1 5PL       0.037200
    177 HBF2       -13.6860    -1.0500     2.6110 hc         1 5PL       0.037200
    178 HBG1       -15.0440     1.0390     2.3530 hc         1 5PL       0.036700
    179 HBG2       -15.7190     0.4160     0.8630 hc         1 5PL       0.036700
    180 HAT1       -16.6970    -1.5190     2.1160 hc         1 5PL       0.037200
    181 HAT2       -16.0220    -0.8960     3.6060 hc         1 5PL       0.037200
    182 HAU1       -17.3820     1.1920     3.3490 hc         1 5PL       0.036700
    183 HAU2       -18.0570     0.5690     1.8590 hc         1 5PL       0.036700
    184 HAV1       -19.0330    -1.3670     3.1130 hc         1 5PL       0.036700
    185 HAV2       -18.3570    -0.7440     4.6020 hc         1 5PL       0.036700
    186 HBJ1       -19.7190     1.3430     4.3470 hc         1 5PL       0.036700
    187 HBJ2       -20.3960     0.7200     2.8590 hc         1 5PL       0.036700
    188 H181       -21.3670    -1.2180     4.1140 hc         1 5PL       0.036700
    189 H182       -20.6890    -0.5940     5.6020 hc         1 5PL       0.036700
    190 H9          19.9240    -6.1580     5.2260 hc         1 5PL       0.043700
    191 H101        20.4130    -3.2040     4.6130 hc         1 5PL       0.030867
    192 H102        21.6460    -4.4620     4.5430 hc         1 5PL       0.030867
    193 H103        20.2910    -4.5010     3.4260 hc         1 5PL       0.030867
    194 H121        19.8090    -5.4700     7.6150 hc         1 5PL       0.030867
    195 H122        21.3950    -5.1050     6.9400 hc         1 5PL       0.030867
    196 H123        20.2170    -3.8150     7.1680 hc         1 5PL       0.030867
    197 H15          8.1650    12.6320     4.7580 hc         1 5PL       0.043700
    198 H161        10.5420    12.4920     5.5280 hc         1 5PL       0.030867
    199 H162         9.9640    10.9410     4.9390 hc         1 5PL       0.030867
    200 H163        11.0190    11.9250     3.9270 hc         1 5PL       0.030867
    201 H171         8.4430    14.6680     3.3550 hc         1 5PL       0.030867
    202 H172         9.6170    14.6510     4.6680 hc         1 5PL       0.030867
    203 H173        10.1190    14.2270     3.0330 hc         1 5PL       0.030867
    204 H191       -22.0550     1.4910     5.3500 hc         1 5PL       0.036700
    205 H192       -22.7330     0.8660     3.8620 hc         1 5PL       0.036700
    206 H201       -23.6980    -1.0740     5.1190 hc         1 5PL       0.036700
    207 H202       -23.0220    -0.4480     6.6060 hc         1 5PL       0.036700
    208 H211       -24.3930     1.6310     6.3530 hc         1 5PL       0.036700
    209 H212       -25.0690     1.0050     4.8670 hc         1 5PL       0.036700
    210 H221       -26.0540    -0.9390     6.1320 hc         1 5PL       0.031033
    211 H222       -25.3880    -0.2930     7.6280 hc         1 5PL       0.031033
    212 H223       -26.6370     0.5990     6.7640 hc         1 5PL       0.031033
    213 CBU          2.0810    -1.8280    -3.6670 c          1 5PL       0.638100
@<TRIPOS>BOND
     1     1     2 2   
     2     2     3 1   
     3     2     4 1   
     4     3     5 1   
     5     3    85 1   
     6     3    86 1   
     7     4    16 1   
     8     5     6 1   
     9     5    87 1   
    10     5    88 1   
    11     6     7 1   
    12     6    91 1   
    13     6    92 1   
    14     7     8 1   
    15     7    93 1   
    16     7    94 1   
    17     8     9 1   
    18     8    95 1   
    19     8    96 1   
    20     9    10 1   
    21     9    97 1   
    22     9    98 1   
    23    10    11 1   
    24    10    99 1   
    25    10   100 1   
    26    11    12 1   
    27    11   101 1   
    28    11   102 1   
    29    12    13 1   
    30    12   103 1   
    31    12   104 1   
    32    13    14 1   
    33    13   105 1   
    34    13   106 1   
    35    14    15 1   
    36    14   107 1   
    37    14   108 1   
    38    15    72 1   
    39    15   109 1   
    40    15   110 1   
    41    16    17 1   
    42    16    89 1   
    43    16    90 1   
    44    17    18 1   
    45    17    39 1   
    46    17   113 1   
    47    18    30 1   
    48    18   114 1   
    49    18   115 1   
    50    19    20 1   
    51    19   116 1   
    52    19   117 1   
    53    19   213 1   
    54    20    21 1   
    55    20   118 1   
    56    20   119 1   
    57    21    22 1   
    58    21   120 1   
    59    21   121 1   
    60    22    37 1   
    61    22   122 1   
    62    22   123 1   
    63    23    24 1   
    64    23    37 1   
    65    23   126 1   
    66    23   127 1   
    67    24    25 1   
    68    24   128 1   
    69    24   129 1   
    70    25    26 1   
    71    25   130 1   
    72    25   131 1   
    73    26    27 1   
    74    26   132 1   
    75    26   133 1   
    76    27    28 1   
    77    27   134 1   
    78    27   135 1   
    79    28    29 1   
    80    28   136 1   
    81    28   137 1   
    82    29    76 1   
    83    29   138 1   
    84    29   139 1   
    85    30    31 1   
    86    31    32 1   
    87    31    33 1   
    88    31    34 1   
    89    34    35 1   
    90    35    36 1   
    91    35    55 1   
    92    35   142 1   
    93    36    38 1   
    94    36   143 1   
    95    36   144 1   
    96    37   124 1   
    97    37   125 1   
    98    38    40 1   
    99    39   213 1   
   100    40    42 1   
   101    40    54 1   
   102    40   145 1   
   103    41   213 2   
   104    42    43 1   
   105    42    47 1   
   106    42   146 1   
   107    43    44 1   
   108    43   147 1   
   109    44    45 2   
   110    44    46 1   
   111    46   149 1   
   112    46   150 1   
   113    46   151 1   
   114    47    48 1   
   115    47    49 1   
   116    47   148 1   
   117    48   152 1   
   118    49    50 1   
   119    49    51 1   
   120    49   153 1   
   121    50   154 1   
   122    51    52 1   
   123    51    54 1   
   124    51   155 1   
   125    52    53 1   
   126    52   156 1   
   127    52   157 1   
   128    53   158 1   
   129    55    56 2   
   130    55    57 1   
   131    57    58 1   
   132    57   159 1   
   133    58    59 1   
   134    58   160 1   
   135    58   161 1   
   136    59    60 1   
   137    59   162 1   
   138    59   163 1   
   139    60    61 1   
   140    60   164 1   
   141    60   165 1   
   142    61    62 1   
   143    61   166 1   
   144    61   167 1   
   145    62    63 1   
   146    62   168 1   
   147    62   169 1   
   148    63    64 1   
   149    63   170 1   
   150    63   171 1   
   151    64    65 1   
   152    64   172 1   
   153    64   173 1   
   154    65    66 1   
   155    65   174 1   
   156    65   175 1   
   157    66    67 1   
   158    66   176 1   
   159    66   177 1   
   160    67    68 1   
   161    67   178 1   
   162    67   179 1   
   163    68    69 1   
   164    68   180 1   
   165    68   181 1   
   166    69    70 1   
   167    69   182 1   
   168    69   183 1   
   169    70    71 1   
   170    70   184 1   
   171    70   185 1   
   172    71    80 1   
   173    71   186 1   
   174    71   187 1   
   175    72    73 1   
   176    72   111 1   
   177    72   112 1   
   178    73    74 1   
   179    73    75 1   
   180    73   190 1   
   181    74   191 1   
   182    74   192 1   
   183    74   193 1   
   184    75   194 1   
   185    75   195 1   
   186    75   196 1   
   187    76    77 1   
   188    76   140 1   
   189    76   141 1   
   190    77    78 1   
   191    77    79 1   
   192    77   197 1   
   193    78   198 1   
   194    78   199 1   
   195    78   200 1   
   196    79   201 1   
   197    79   202 1   
   198    79   203 1   
   199    80    81 1   
   200    80   188 1   
   201    80   189 1   
   202    81    82 1   
   203    81   204 1   
   204    81   205 1   
   205    82    83 1   
   206    82   206 1   
   207    82   207 1   
   208    83    84 1   
   209    83   208 1   
   210    83   209 1   
   211    84   210 1   
   212    84   211 1   
   213    84   212 1   
@<TRIPOS>SUBSTRUCTURE
     1 5PL         1 TEMP              0 ****  ****    0 ROOT
