@<TRIPOS>MOLECULE
5PM
   47    50     1     0     0
SMALL
No Charge or Current Charge


@<TRIPOS>ATOM
      1 N11          7.1710     1.5840     0.5460 nb         1 5PM      -0.622000
      2 N12          4.9030    -0.2800     0.5170 ne         1 5PM      -0.527100
      3 N13         -4.3190     0.5170     0.5480 ne         1 5PM      -0.527100
      4 N14         -6.3490     2.6180     0.2540 nb         1 5PM      -0.622000
      5 C1A          8.2690     2.3580     0.3850 ca         1 5PM       0.333900
      6 C1B          8.4520     3.2020    -0.7220 ca         1 5PM      -0.153000
      7 C1C          7.4600     3.2520    -1.7130 ca         1 5PM      -0.077500
      8 C1D          6.3190     2.4490    -1.5500 ca         1 5PM      -0.143500
      9 C1E          6.1960     1.6250    -0.4090 ca         1 5PM       0.292200
     10 C1F          4.9790     0.7720    -0.2600 cf         1 5PM       0.373200
     11 C1G          3.7500    -1.0800     0.5520 ca         1 5PM       0.128900
     12 C1H          2.7150    -0.7870     1.4570 ca         1 5PM      -0.110750
     13 C1I          1.5570    -1.5850     1.4910 ca         1 5PM      -0.079000
     14 C1J          1.4310    -2.6800     0.6160 ca         1 5PM      -0.123500
     15 C1K          2.4690    -2.9790    -0.2840 ca         1 5PM      -0.079000
     16 C1L          3.6260    -2.1790    -0.3150 ca         1 5PM      -0.110750
     17 S1M         -0.0380    -3.7060     0.6470 ss         1 5PM       0.050000
     18 C1N         -1.3070    -2.4420     0.6120 ca         1 5PM      -0.123500
     19 C1O         -1.2450    -1.3900    -0.3220 ca         1 5PM      -0.079000
     20 C1P         -2.2470    -0.4040    -0.3400 ca         1 5PM      -0.110750
     21 C1Q         -3.3180    -0.4660     0.5690 ca         1 5PM       0.128900
     22 C1R         -3.3800    -1.5190     1.4990 ca         1 5PM      -0.110750
     23 C1S         -2.3790    -2.5060     1.5200 ca         1 5PM      -0.079000
     24 C1T         -5.3900     0.3840    -0.1950 cf         1 5PM       0.373200
     25 C1U         -6.5310     1.3470    -0.2130 ca         1 5PM       0.292200
     26 C1V         -7.7850     0.9160    -0.7000 ca         1 5PM      -0.143500
     27 C1W         -8.8720     1.8050    -0.7160 ca         1 5PM      -0.077500
     28 C1X         -8.6700     3.1080    -0.2370 ca         1 5PM      -0.153000
     29 C1Y         -7.3990     3.4710     0.2370 ca         1 5PM       0.333900
     30 H1A          9.0230     2.2990     1.1680 h4         1 5PM       0.023100
     31 H1B          9.3520     3.8050    -0.8040 ha         1 5PM       0.125000
     32 H1C          7.5720     3.8950    -2.5850 ha         1 5PM       0.122000
     33 H1D          5.5340     2.4630    -2.3010 ha         1 5PM       0.123500
     34 H1F          4.1600     1.0030    -0.9490 h4         1 5PM      -0.024200
     35 H1H          2.8070     0.0590     2.1330 ha         1 5PM       0.125000
     36 H1I          0.7620    -1.3510     2.1950 ha         1 5PM       0.126750
     37 H1K          2.3800    -3.8280    -0.9590 ha         1 5PM       0.126750
     38 H1L          4.4250    -2.4130    -1.0130 ha         1 5PM       0.125000
     39 H1O         -0.4220    -1.3350    -1.0320 ha         1 5PM       0.126750
     40 H1P         -2.1930     0.4080    -1.0610 ha         1 5PM       0.125000
     41 H1R         -4.2050    -1.5710     2.2050 ha         1 5PM       0.125000
     42 H1S         -2.4350    -3.3180     2.2430 ha         1 5PM       0.126750
     43 H1T         -5.5500    -0.5400    -0.7620 h4         1 5PM      -0.024200
     44 H1V         -7.9100    -0.1010    -1.0610 ha         1 5PM       0.123500
     45 H1W         -9.8460     1.4910    -1.0880 ha         1 5PM       0.122000
     46 H1X         -9.4800     3.8310    -0.2290 ha         1 5PM       0.125000
     47 H1Y         -7.2140     4.4760     0.6160 h4         1 5PM       0.023100
@<TRIPOS>BOND
     1     1     5 ar  
     2     1     9 ar  
     3     2    10 2   
     4     2    11 1   
     5     3    21 1   
     6     3    24 2   
     7     4    25 ar  
     8     4    29 ar  
     9     5     6 ar  
    10     5    30 1   
    11     6     7 ar  
    12     6    31 1   
    13     7     8 ar  
    14     7    32 1   
    15     8     9 ar  
    16     8    33 1   
    17     9    10 1   
    18    10    34 1   
    19    11    12 ar  
    20    11    16 ar  
    21    12    13 ar  
    22    12    35 1   
    23    13    14 ar  
    24    13    36 1   
    25    14    15 ar  
    26    14    17 1   
    27    15    16 ar  
    28    15    37 1   
    29    16    38 1   
    30    17    18 1   
    31    18    19 ar  
    32    18    23 ar  
    33    19    20 ar  
    34    19    39 1   
    35    20    21 ar  
    36    20    40 1   
    37    21    22 ar  
    38    22    23 ar  
    39    22    41 1   
    40    23    42 1   
    41    24    25 1   
    42    24    43 1   
    43    25    26 ar  
    44    26    27 ar  
    45    26    44 1   
    46    27    28 ar  
    47    27    45 1   
    48    28    29 ar  
    49    28    46 1   
    50    29    47 1   
@<TRIPOS>SUBSTRUCTURE
     1 5PM         1 TEMP              0 ****  ****    0 ROOT
