@<TRIPOS>MOLECULE
5PM
   47    50     1     0     0
SMALL
abcg2


@<TRIPOS>ATOM
      1 N11          7.4340     1.0580     0.6000 nb         1 5PM      -0.622000
      2 N12          5.0240    -0.3110     0.3330 ne         1 5PM      -0.527100
      3 N13         -4.5700     0.3800    -0.4550 ne         1 5PM      -0.527100
      4 N14         -6.6390     2.2290    -0.6640 nb         1 5PM      -0.622000
      5 C1A          8.5600     1.7450     0.6810 ca         1 5PM       0.333900
      6 C1B          8.7710     2.9580     0.0300 ca         1 5PM      -0.153000
      7 C1C          7.7480     3.4740    -0.7450 ca         1 5PM      -0.077500
      8 C1D          6.5630     2.7590    -0.8370 ca         1 5PM      -0.143500
      9 C1E          6.4490     1.5550    -0.1480 ca         1 5PM       0.292200
     10 C1F          5.1910     0.8020    -0.2500 cf         1 5PM       0.373200
     11 C1G          3.7970    -0.9690     0.2480 ca         1 5PM       0.128900
     12 C1H          2.5640    -0.3170     0.2130 ca         1 5PM      -0.110750
     13 C1I          1.3790    -1.0350     0.1490 ca         1 5PM      -0.079000
     14 C1J          1.4040    -2.4250     0.1080 ca         1 5PM      -0.123500
     15 C1K          2.6330    -3.0850     0.1560 ca         1 5PM      -0.079000
     16 C1L          3.8090    -2.3650     0.2420 ca         1 5PM      -0.110750
     17 S1M         -0.0380    -3.4450     0.0270 ss         1 5PM       0.050000
     18 C1N         -1.3630    -2.2820    -0.0970 ca         1 5PM      -0.123500
     19 C1O         -1.7590    -1.7980    -1.3410 ca         1 5PM      -0.079000
     20 C1P         -2.8140    -0.9090    -1.4360 ca         1 5PM      -0.110750
     21 C1Q         -3.5150    -0.5160    -0.2940 ca         1 5PM       0.128900
     22 C1R         -3.1090    -0.9990     0.9530 ca         1 5PM      -0.110750
     23 C1S         -2.0390    -1.8740     1.0480 ca         1 5PM      -0.079000
     24 C1T         -5.6240     0.2360     0.2340 cf         1 5PM       0.373200
     25 C1U         -6.7500     1.1770     0.1460 ca         1 5PM       0.292200
     26 C1V         -7.8840     0.9310     0.9110 ca         1 5PM      -0.143500
     27 C1W         -8.9510     1.8140     0.8290 ca         1 5PM      -0.077500
     28 C1X         -8.8390     2.9050    -0.0140 ca         1 5PM      -0.153000
     29 C1Y         -7.6600     3.0650    -0.7370 ca         1 5PM       0.333900
     30 H1A          9.3440     1.3180     1.2960 h4         1 5PM       0.023100
     31 H1B          9.7160     3.4740     0.1340 ha         1 5PM       0.125000
     32 H1C          7.8660     4.4130    -1.2690 ha         1 5PM       0.122000
     33 H1D          5.7380     3.1260    -1.4340 ha         1 5PM       0.123500
     34 H1F          4.4200     1.2650    -0.8740 h4         1 5PM      -0.024200
     35 H1H          2.5130     0.7630     0.2690 ha         1 5PM       0.125000
     36 H1I          0.4420    -0.4960     0.1380 ha         1 5PM       0.126750
     37 H1K          2.6740    -4.1670     0.1350 ha         1 5PM       0.126750
     38 H1L          4.7560    -2.8860     0.2930 ha         1 5PM       0.125000
     39 H1O         -1.2340    -2.1090    -2.2350 ha         1 5PM       0.126750
     40 H1P         -3.1150    -0.5210    -2.4010 ha         1 5PM       0.125000
     41 H1R         -3.6110    -0.6710     1.8550 ha         1 5PM       0.125000
     42 H1S         -1.7250    -2.2340     2.0190 ha         1 5PM       0.126750
     43 H1T         -5.7640    -0.6000     0.9250 h4         1 5PM      -0.024200
     44 H1V         -7.9290     0.0640     1.5580 ha         1 5PM       0.123500
     45 H1W         -9.8480     1.6500     1.4110 ha         1 5PM       0.122000
     46 H1X         -9.6420     3.6220    -0.1180 ha         1 5PM       0.125000
     47 H1Y         -7.5440     3.9130    -1.4030 h4         1 5PM       0.023100
@<TRIPOS>BOND
     1     1     5 ar  
     2     1     9 ar  
     3     2    10 2   
     4     2    11 1   
     5     3    21 1   
     6     3    24 2   
     7     4    25 ar  
     8     4    29 ar  
     9     5     6 ar  
    10     5    30 1   
    11     6     7 ar  
    12     6    31 1   
    13     7     8 ar  
    14     7    32 1   
    15     8     9 ar  
    16     8    33 1   
    17     9    10 1   
    18    10    34 1   
    19    11    12 ar  
    20    11    16 ar  
    21    12    13 ar  
    22    12    35 1   
    23    13    14 ar  
    24    13    36 1   
    25    14    15 ar  
    26    14    17 1   
    27    15    16 ar  
    28    15    37 1   
    29    16    38 1   
    30    17    18 1   
    31    18    19 ar  
    32    18    23 ar  
    33    19    20 ar  
    34    19    39 1   
    35    20    21 ar  
    36    20    40 1   
    37    21    22 ar  
    38    22    23 ar  
    39    22    41 1   
    40    23    42 1   
    41    24    25 1   
    42    24    43 1   
    43    25    26 ar  
    44    26    27 ar  
    45    26    44 1   
    46    27    28 ar  
    47    27    45 1   
    48    28    29 ar  
    49    28    46 1   
    50    29    47 1   
@<TRIPOS>SUBSTRUCTURE
     1 5PM         1 TEMP              0 ****  ****    0 ROOT
