@<TRIPOS>MOLECULE
5PN
   19    20     1     0     0
SMALL
No Charge or Current Charge


@<TRIPOS>ATOM
      1 CAA          3.4980    -0.6920    -0.0620 c3         1 5PN      -0.143400
      2 CAI          1.9810    -0.5860    -0.0540 ca         1 5PN       0.366300
      3 NAF          1.3080    -1.7740    -0.0340 nb         1 5PN      -0.656000
      4 CAD         -0.0500    -1.7420    -0.0250 ca         1 5PN       0.392900
      5 CAK         -0.7320    -0.5230    -0.0380 ca         1 5PN      -0.219600
      6 CAH         -2.1790    -0.2780    -0.0320 c          1 5PN       0.680700
      7 OAB         -3.0580    -1.1260    -0.0150 o          1 5PN      -0.469000
      8 OAG         -2.3870     1.0880    -0.0490 os         1 5PN      -0.422100
      9 CAE         -1.0960     1.7940    -0.0660 c5         1 5PN       0.208900
     10 CAL         -0.0750     0.6790    -0.0580 ca         1 5PN      -0.174300
     11 CAJ          1.3290     0.6870    -0.0670 ca         1 5PN       0.108100
     12 OAC          2.0290     1.8690    -0.0870 oh         1 5PN      -0.518100
     13 H1           3.9260    -0.1930     0.8150 hc         1 5PN       0.059700
     14 H2           3.8380    -1.7350    -0.0500 hc         1 5PN       0.059700
     15 H3           3.9150    -0.2170    -0.9570 hc         1 5PN       0.059700
     16 H4          -0.5770    -2.6950    -0.0090 h4         1 5PN       0.046100
     17 H5          -1.0280     2.4110    -0.9720 h1         1 5PN       0.074700
     18 H6          -1.0160     2.4350     0.8220 h1         1 5PN       0.074700
     19 H7           1.3970     2.6190    -0.0930 ho         1 5PN       0.471000
@<TRIPOS>BOND
     1     1     2 1   
     2     1    13 1   
     3     1    14 1   
     4     1    15 1   
     5     2     3 ar  
     6     2    11 ar  
     7     3     4 ar  
     8     4     5 ar  
     9     4    16 1   
    10     5     6 1   
    11     5    10 ar  
    12     6     7 2   
    13     6     8 1   
    14     8     9 1   
    15     9    10 1   
    16     9    17 1   
    17     9    18 1   
    18    10    11 ar  
    19    11    12 1   
    20    12    19 1   
@<TRIPOS>SUBSTRUCTURE
     1 5PN         1 TEMP              0 ****  ****    0 ROOT
