@<TRIPOS>MOLECULE
5PN
   19    20     1     0     0
SMALL
abcg2


@<TRIPOS>ATOM
      1 CAA          3.4540    -0.6410    -0.0620 c3         1 5PN      -0.143400
      2 CAI          1.9590    -0.5810    -0.0540 ca         1 5PN       0.366300
      3 NAF          1.2900    -1.7320    -0.0350 nb         1 5PN      -0.656000
      4 CAD         -0.0360    -1.7400    -0.0270 ca         1 5PN       0.392900
      5 CAK         -0.7350    -0.5510    -0.0380 ca         1 5PN      -0.219600
      6 CAH         -2.1760    -0.2760    -0.0310 c          1 5PN       0.680700
      7 OAB         -3.1060    -1.0340    -0.0130 o          1 5PN      -0.469000
      8 OAG         -2.3370     1.0580    -0.0480 os         1 5PN      -0.422100
      9 CAE         -1.0870     1.7500    -0.0660 c5         1 5PN       0.208900
     10 CAL         -0.0690     0.6570    -0.0590 ca         1 5PN      -0.174300
     11 CAJ          1.3110     0.6680    -0.0680 ca         1 5PN       0.108100
     12 OAC          2.0750     1.7700    -0.0880 oh         1 5PN      -0.518100
     13 H1           3.8770    -0.1310     0.8050 hc         1 5PN       0.059700
     14 H2           3.7840    -1.6770    -0.0470 hc         1 5PN       0.059700
     15 H3           3.8670    -0.1590    -0.9490 hc         1 5PN       0.059700
     16 H4          -0.5330    -2.7030    -0.0110 h4         1 5PN       0.046100
     17 H5          -1.0380     2.3730    -0.9620 h1         1 5PN       0.074700
     18 H6          -1.0250     2.3970     0.8110 h1         1 5PN       0.074700
     19 H7           1.5470     2.5750    -0.0890 ho         1 5PN       0.471000
@<TRIPOS>BOND
     1     1     2 1   
     2     1    13 1   
     3     1    14 1   
     4     1    15 1   
     5     2     3 ar  
     6     2    11 ar  
     7     3     4 ar  
     8     4     5 ar  
     9     4    16 1   
    10     5     6 1   
    11     5    10 ar  
    12     6     7 2   
    13     6     8 1   
    14     8     9 1   
    15     9    10 1   
    16     9    17 1   
    17     9    18 1   
    18    10    11 ar  
    19    11    12 1   
    20    12    19 1   
@<TRIPOS>SUBSTRUCTURE
     1 5PN         1 TEMP              0 ****  ****    0 ROOT
