@<TRIPOS>MOLECULE
5PP
   39    40     1     0     0
SMALL
No Charge or Current Charge


@<TRIPOS>ATOM
      1 O17         -0.8200     2.9610    -0.5320 oh         1 5PP      -0.530100
      2 C6          -0.3220     1.8630     0.1070 ca         1 5PP       0.145100
      3 C5          -1.1970     0.8620     0.5740 ca         1 5PP      -0.007900
      4 O7          -2.5580     1.0140     0.3950 os         1 5PP      -0.262200
      5 C8          -3.3980    -0.0370     0.1030 ca         1 5PP       0.119100
      6 C13         -4.6850    -0.0560     0.6650 ca         1 5PP      -0.155500
      7 C12         -5.5680    -1.1100     0.3730 ca         1 5PP      -0.080500
      8 C11         -5.1640    -2.1430    -0.4910 ca         1 5PP      -0.138000
      9 C10         -3.8820    -2.1210    -1.0660 ca         1 5PP      -0.080500
     10 C9          -2.9990    -1.0660    -0.7730 ca         1 5PP      -0.155500
     11 C4          -0.6750    -0.2620     1.2450 ca         1 5PP      -0.076000
     12 C3           0.7130    -0.3900     1.4270 ca         1 5PP      -0.140000
     13 C2           1.5900     0.6040     0.9500 ca         1 5PP      -0.037300
     14 C1           1.0640     1.7310     0.2900 ca         1 5PP      -0.144000
     15 C14          3.0930     0.4590     1.1430 c3         1 5PP      -0.034100
     16 C15          3.7590    -0.2830    -0.0350 c3         1 5PP      -0.074400
     17 C16          5.2860    -0.4450     0.1340 c3         1 5PP      -0.076400
     18 C17          5.9490    -1.1880    -1.0460 c3         1 5PP      -0.075400
     19 C18          7.4720    -1.3500    -0.8770 c3         1 5PP      -0.089100
     20 H17         -1.7970     2.8600    -0.5510 ho         1 5PP       0.481000
     21 H13         -4.9950     0.7460     1.3310 ha         1 5PP       0.127500
     22 H12         -6.5630    -1.1260     0.8140 ha         1 5PP       0.114000
     23 H11         -5.8470    -2.9590    -0.7180 ha         1 5PP       0.116000
     24 H10         -3.5730    -2.9180    -1.7400 ha         1 5PP       0.114000
     25 H9          -2.0120    -1.0480    -1.2290 ha         1 5PP       0.127500
     26 H4          -1.3410    -1.0320     1.6280 ha         1 5PP       0.128000
     27 H3           1.1080    -1.2640     1.9410 ha         1 5PP       0.119000
     28 H1           1.7300     2.5060    -0.0820 ha         1 5PP       0.131000
     29 H141         3.3020    -0.0820     2.0740 hc         1 5PP       0.049700
     30 H142         3.5550     1.4480     1.2540 hc         1 5PP       0.049700
     31 H151         3.5550     0.2640    -0.9640 hc         1 5PP       0.042700
     32 H152         3.3000    -1.2740    -0.1400 hc         1 5PP       0.042700
     33 H161         5.4900    -0.9920     1.0640 hc         1 5PP       0.038200
     34 H162         5.7440     0.5470     0.2390 hc         1 5PP       0.038200
     35 H171         5.7500    -0.6430    -1.9770 hc         1 5PP       0.037200
     36 H172         5.4950    -2.1810    -1.1520 hc         1 5PP       0.037200
     37 H181         7.9610    -0.3710    -0.8030 hc         1 5PP       0.032033
     38 H182         7.7040    -1.9230     0.0290 hc         1 5PP       0.032033
     39 H183         7.8980    -1.8810    -1.7370 hc         1 5PP       0.032033
@<TRIPOS>BOND
     1     1     2 1   
     2     1    20 1   
     3     2     3 ar  
     4     2    14 ar  
     5     3     4 1   
     6     3    11 ar  
     7     4     5 1   
     8     5     6 ar  
     9     5    10 ar  
    10     6     7 ar  
    11     6    21 1   
    12     7     8 ar  
    13     7    22 1   
    14     8     9 ar  
    15     8    23 1   
    16     9    10 ar  
    17     9    24 1   
    18    10    25 1   
    19    11    12 ar  
    20    11    26 1   
    21    12    13 ar  
    22    12    27 1   
    23    13    14 ar  
    24    13    15 1   
    25    14    28 1   
    26    15    16 1   
    27    15    29 1   
    28    15    30 1   
    29    16    17 1   
    30    16    31 1   
    31    16    32 1   
    32    17    18 1   
    33    17    33 1   
    34    17    34 1   
    35    18    19 1   
    36    18    35 1   
    37    18    36 1   
    38    19    37 1   
    39    19    38 1   
    40    19    39 1   
@<TRIPOS>SUBSTRUCTURE
     1 5PP         1 TEMP              0 ****  ****    0 ROOT
