@<TRIPOS>MOLECULE
5PP
   39    40     1     0     0
SMALL
bcc


@<TRIPOS>ATOM
      1 O17         -1.1100     2.5480    -0.5100 oh         1 5PP      -0.491100
      2 C6          -0.4840     1.6610     0.2860 ca         1 5PP       0.145100
      3 C5          -1.1790     0.7600     1.0910 ca         1 5PP      -0.007900
      4 O7          -2.5540     0.8060     1.0850 os         1 5PP      -0.262200
      5 C8          -3.2380    -0.1240     0.3490 ca         1 5PP       0.119100
      6 C13         -4.6120    -0.1810     0.5590 ca         1 5PP      -0.173500
      7 C12         -5.3770    -1.0850    -0.1600 ca         1 5PP      -0.098500
      8 C11         -4.7830    -1.9360    -1.0850 ca         1 5PP      -0.156000
      9 C10         -3.4130    -1.8690    -1.2850 ca         1 5PP      -0.098500
     10 C9          -2.6300    -0.9670    -0.5730 ca         1 5PP      -0.173500
     11 C4          -0.4970    -0.1350     1.8970 ca         1 5PP      -0.094000
     12 C3           0.8890    -0.1450     1.9020 ca         1 5PP      -0.158000
     13 C2           1.6050     0.7420     1.0990 ca         1 5PP      -0.037300
     14 C1           0.9070     1.6420     0.3030 ca         1 5PP      -0.162000
     15 C14          3.1060     0.6900     1.0520 c3         1 5PP      -0.034100
     16 C15          3.6100    -0.3310     0.0300 c3         1 5PP      -0.074400
     17 C16          5.1300    -0.4050    -0.0280 c3         1 5PP      -0.076400
     18 C17          5.6380    -1.4250    -1.0410 c3         1 5PP      -0.075400
     19 C18          7.1570    -1.4990    -1.0960 c3         1 5PP      -0.089100
     20 H17         -2.0600     2.5380    -0.3440 ho         1 5PP       0.442000
     21 H13         -5.0740     0.4790     1.2830 ha         1 5PP       0.145500
     22 H12         -6.4450    -1.1270     0.0100 ha         1 5PP       0.132000
     23 H11         -5.3840    -2.6430    -1.6410 ha         1 5PP       0.134000
     24 H10         -2.9350    -2.5230    -2.0030 ha         1 5PP       0.132000
     25 H9          -1.5630    -0.9330    -0.7470 ha         1 5PP       0.145500
     26 H4          -1.0560    -0.8230     2.5190 ha         1 5PP       0.146000
     27 H3           1.4160    -0.8490     2.5340 ha         1 5PP       0.137000
     28 H1           1.4450     2.3460    -0.3230 ha         1 5PP       0.149000
     29 H141         3.4980     0.4310     2.0400 hc         1 5PP       0.049700
     30 H142         3.5060     1.6760     0.8050 hc         1 5PP       0.049700
     31 H151         3.2160    -0.0740    -0.9590 hc         1 5PP       0.042700
     32 H152         3.2040    -1.3170     0.2770 hc         1 5PP       0.042700
     33 H161         5.5210    -0.6550     0.9650 hc         1 5PP       0.038200
     34 H162         5.5340     0.5830    -0.2740 hc         1 5PP       0.038200
     35 H171         5.2470    -1.1740    -2.0320 hc         1 5PP       0.037200
     36 H172         5.2310    -2.4110    -0.7950 hc         1 5PP       0.037200
     37 H181         7.5900    -0.5360    -1.3730 hc         1 5PP       0.032033
     38 H182         7.5740    -1.7800    -0.1270 hc         1 5PP       0.032033
     39 H183         7.4950    -2.2350    -1.8260 hc         1 5PP       0.032033
@<TRIPOS>BOND
     1     1     2 1   
     2     1    20 1   
     3     2     3 ar  
     4     2    14 ar  
     5     3     4 1   
     6     3    11 ar  
     7     4     5 1   
     8     5     6 ar  
     9     5    10 ar  
    10     6     7 ar  
    11     6    21 1   
    12     7     8 ar  
    13     7    22 1   
    14     8     9 ar  
    15     8    23 1   
    16     9    10 ar  
    17     9    24 1   
    18    10    25 1   
    19    11    12 ar  
    20    11    26 1   
    21    12    13 ar  
    22    12    27 1   
    23    13    14 ar  
    24    13    15 1   
    25    14    28 1   
    26    15    16 1   
    27    15    29 1   
    28    15    30 1   
    29    16    17 1   
    30    16    31 1   
    31    16    32 1   
    32    17    18 1   
    33    17    33 1   
    34    17    34 1   
    35    18    19 1   
    36    18    35 1   
    37    18    36 1   
    38    19    37 1   
    39    19    38 1   
    40    19    39 1   
@<TRIPOS>SUBSTRUCTURE
     1 5PP         1 TEMP              0 ****  ****    0 ROOT
