@<TRIPOS>MOLECULE
5PQ
   45    48     1     0     0
SMALL
bcc


@<TRIPOS>ATOM
      1 C4           2.5780     0.1670    -0.1430 cc         1 5PQ       0.296100
      2 C5           2.7190     1.4460     0.3400 cd         1 5PQ      -0.326900
      3 C6           3.9170     2.1770     0.0830 c          1 5PQ       0.778100
      4 C8           0.7580     0.7300     0.9570 cc         1 5PQ      -0.002600
      5 N1           4.7920     1.3950    -0.6710 ns         1 5PQ      -0.516400
      6 N3           3.4470    -0.5330    -0.8590 nc         1 5PQ      -0.705100
      7 O6           4.2020     3.3040     0.4320 o          1 5PQ      -0.552500
      8 C2           4.5640     0.1210    -1.1120 cd         1 5PQ       0.788800
      9 N7           1.5620     1.7640     1.0180 na         1 5PQ       0.061900
     10 CAA          1.2650     3.0230     1.6820 c3         1 5PQ       0.010600
     11 N9           1.3370    -0.2620     0.2630 na         1 5PQ      -0.051100
     12 CAZ          0.7320    -1.5430    -0.0390 c5         1 5PQ       0.254800
     13 OAN         -0.4700    -1.3230    -0.7130 os         1 5PQ      -0.401600
     14 CAX          0.3630    -2.3550     1.1970 c5         1 5PQ       0.060100
     15 OAH          1.4910    -2.9860     1.7110 oh         1 5PQ      -0.571800
     16 CAW         -0.7020    -3.2830     0.6050 c5         1 5PQ       0.097100
     17 OAG         -0.1070    -4.3190    -0.1310 oh         1 5PQ      -0.575800
     18 CAY         -1.4160    -2.3450    -0.3650 c5         1 5PQ       0.112100
     19 CAJ         -2.6650    -1.7120     0.2290 c3         1 5PQ       0.214800
     20 NAL         -3.3100    -0.8240    -0.7140 nu         1 5PQ      -0.724000
     21 CAQ         -3.3260     0.4900    -0.6280 cc         1 5PQ       0.042800
     22 CAT         -2.8560     1.4830     0.3570 c          1 5PQ       0.483300
     23 OAE         -2.2700     1.4420     1.4150 o          1 5PQ      -0.545100
     24 CAS         -3.4250     2.5670    -0.5280 c          1 5PQ       0.464300
     25 OAD         -3.4960     3.7740    -0.4960 o          1 5PQ      -0.462100
     26 CAP         -3.8460     1.5060    -1.4250 cd         1 5PQ      -0.057100
     27 OAF         -4.4770     1.4370    -2.5710 oh         1 5PQ      -0.441100
     28 H1          -0.2280     0.6940     1.3920 h5         1 5PQ       0.261000
     29 H2           5.6740     1.8330    -0.9060 hn         1 5PQ       0.351500
     30 H3           6.3830    -0.0010    -2.0560 hn         1 5PQ       0.478800
     31 H4           5.3720    -1.3910    -2.1750 hn         1 5PQ       0.478800
     32 H5           1.3100     3.8330     0.9600 h1         1 5PQ       0.096033
     33 H6           0.2670     2.9650     2.1030 h1         1 5PQ       0.096033
     34 H7           1.9860     3.1950     2.4750 h1         1 5PQ       0.096033
     35 H8           1.4650    -2.0780    -0.6520 h2         1 5PQ       0.140700
     36 H9          -0.1140    -1.7000     1.9400 h1         1 5PQ       0.052700
     37 H10          1.3190    -3.2470     2.6210 ho         1 5PQ       0.435000
     38 H11         -1.3810    -3.6690     1.3760 h1         1 5PQ       0.074700
     39 H12          0.5690    -4.7290     0.4190 ho         1 5PQ       0.435000
     40 H13         -1.6950    -2.8860    -1.2740 h1         1 5PQ       0.111700
     41 H14         -3.3630    -2.5080     0.4930 h1         1 5PQ       0.073200
     42 H15         -2.4420    -1.1630     1.1430 h1         1 5PQ       0.073200
     43 H16         -3.7360    -1.2510    -1.5230 hn         1 5PQ       0.462800
     44 H17         -4.7140     2.3180    -2.8910 ho         1 5PQ       0.461000
     45 N2           5.5220    -0.4630    -1.8180 nv         1 5PQ      -0.908800
@<TRIPOS>BOND
     1     1     2 2   
     2     1     6 1   
     3     1    11 1   
     4     2     3 1   
     5     2     9 1   
     6     3     5 1   
     7     3     7 2   
     8     4     9 2   
     9     4    11 1   
    10     4    28 1   
    11     5     8 1   
    12     5    29 1   
    13     6     8 2   
    14     8    45 1   
    15     9    10 1   
    16    10    32 1   
    17    10    33 1   
    18    10    34 1   
    19    11    12 1   
    20    12    13 1   
    21    12    14 1   
    22    12    35 1   
    23    13    18 1   
    24    14    15 1   
    25    14    16 1   
    26    14    36 1   
    27    15    37 1   
    28    16    17 1   
    29    16    18 1   
    30    16    38 1   
    31    17    39 1   
    32    18    19 1   
    33    18    40 1   
    34    19    20 1   
    35    19    41 1   
    36    19    42 1   
    37    20    21 1   
    38    20    43 1   
    39    21    22 1   
    40    21    26 2   
    41    22    23 2   
    42    22    24 1   
    43    24    25 2   
    44    24    26 1   
    45    26    27 1   
    46    27    44 1   
    47    30    45 1   
    48    31    45 1   
@<TRIPOS>SUBSTRUCTURE
     1 5PQ         1 TEMP              0 ****  ****    0 ROOT
