@<TRIPOS>MOLECULE
5PQ
   45    48     1     0     0
SMALL
No Charge or Current Charge


@<TRIPOS>ATOM
      1 C4           2.4450     0.2510    -0.0550 cc         1 5PQ       0.245400
      2 C5           2.7580     1.4590     0.5100 cd         1 5PQ      -0.377600
      3 C6           3.9040     2.2500     0.0570 c          1 5PQ       0.635600
      4 C8           0.9450     0.6290     1.5690 cc         1 5PQ      -0.035300
      5 N1           4.5590     1.6320    -0.9510 ns         1 5PQ      -0.449400
      6 N3           3.1790    -0.3040    -1.0750 nc         1 5PQ      -0.705100
      7 O6           4.2460     3.3260     0.5150 o          1 5PQ      -0.477000
      8 C2           4.1890     0.4410    -1.4490 cd         1 5PQ       0.788800
      9 N7           1.8230     1.6820     1.4990 na         1 5PQ       0.083300
     10 CAA          1.7800     2.8750     2.3570 c3         1 5PQ       0.039900
     11 N9           1.3140    -0.2660     0.5720 na         1 5PQ       0.021000
     12 CAZ          0.6940    -1.5590     0.2770 c5         1 5PQ       0.307300
     13 OAN         -0.4420    -1.3800    -0.6050 os         1 5PQ      -0.448000
     14 CAX          0.1170    -2.3720     1.4800 c5         1 5PQ       0.083300
     15 OAH          1.1190    -3.0170     2.2920 oh         1 5PQ      -0.694000
     16 CAW         -0.7340    -3.4030     0.6860 c5         1 5PQ       0.120300
     17 OAG          0.1120    -4.4020     0.0970 oh         1 5PQ      -0.698000
     18 CAY         -1.3950    -2.4640    -0.3840 c5         1 5PQ       0.135300
     19 CAJ         -2.7690    -1.8780     0.0610 c3         1 5PQ       0.214800
     20 NAL         -3.3730    -0.9860    -0.9570 nu         1 5PQ      -0.779200
     21 CAQ         -3.2380     0.3990    -1.0080 cc         1 5PQ       0.042800
     22 CAT         -2.6200     1.3800    -0.0620 c          1 5PQ       0.483300
     23 OAE         -2.0550     1.3500     1.0350 o          1 5PQ      -0.545100
     24 CAS         -3.0260     2.4910    -1.0710 c          1 5PQ       0.464300
     25 OAD         -2.9210     3.7150    -1.1450 o          1 5PQ      -0.462100
     26 CAP         -3.5950     1.3970    -1.8920 cd         1 5PQ      -0.057100
     27 OAF         -4.2290     1.4750    -3.0970 oh         1 5PQ      -0.480100
     28 H1           0.1060     0.5360     2.2490 h5         1 5PQ       0.243000
     29 H2           5.3780     2.0950    -1.3030 hn         1 5PQ       0.351500
     30 H3           5.2890     0.6100    -3.0920 hn         1 5PQ       0.534000
     31 H4           4.4830    -0.8670    -2.8590 hn         1 5PQ       0.534000
     32 H5           1.6870     3.7720     1.7340 h1         1 5PQ       0.096033
     33 H6           0.9220     2.8190     3.0380 h1         1 5PQ       0.096033
     34 H7           2.7030     2.9370     2.9450 h1         1 5PQ       0.096033
     35 H8           1.4630    -2.1530    -0.2330 h2         1 5PQ       0.140700
     36 H9          -0.5280    -1.7340     2.1000 h1         1 5PQ       0.052700
     37 H10          0.7620    -3.0950     3.2120 ho         1 5PQ       0.534000
     38 H11         -1.4910    -3.8760     1.3290 h1         1 5PQ       0.074700
     39 H12          0.8290    -4.5530     0.7630 ho         1 5PQ       0.534000
     40 H13         -1.5470    -3.0050    -1.3270 h1         1 5PQ       0.111700
     41 H14         -3.4510    -2.7160     0.2630 h1         1 5PQ       0.073200
     42 H15         -2.6380    -1.3380     1.0080 h1         1 5PQ       0.073200
     43 H16         -3.8460    -1.4230    -1.7580 hn         1 5PQ       0.518000
     44 H17         -4.2650     2.4210    -3.3710 ho         1 5PQ       0.500000
     45 N2           4.9130    -0.0580    -2.4310 nv         1 5PQ      -1.019200
@<TRIPOS>BOND
     1     1     2 2   
     2     1     6 1   
     3     1    11 1   
     4     2     3 1   
     5     2     9 1   
     6     3     5 1   
     7     3     7 2   
     8     4     9 2   
     9     4    11 1   
    10     4    28 1   
    11     5     8 1   
    12     5    29 1   
    13     6     8 2   
    14     8    45 1   
    15     9    10 1   
    16    10    32 1   
    17    10    33 1   
    18    10    34 1   
    19    11    12 1   
    20    12    13 1   
    21    12    14 1   
    22    12    35 1   
    23    13    18 1   
    24    14    15 1   
    25    14    16 1   
    26    14    36 1   
    27    15    37 1   
    28    16    17 1   
    29    16    18 1   
    30    16    38 1   
    31    17    39 1   
    32    18    19 1   
    33    18    40 1   
    34    19    20 1   
    35    19    41 1   
    36    19    42 1   
    37    20    21 1   
    38    20    43 1   
    39    21    22 1   
    40    21    26 2   
    41    22    23 2   
    42    22    24 1   
    43    24    25 2   
    44    24    26 1   
    45    26    27 1   
    46    27    44 1   
    47    30    45 1   
    48    31    45 1   
@<TRIPOS>SUBSTRUCTURE
     1 5PQ         1 TEMP              0 ****  ****    0 ROOT
