@<TRIPOS>MOLECULE
5PR
   21    21     1     0     0
SMALL
abcg2


@<TRIPOS>ATOM
      1 N1          -1.3550     1.8840    -0.0750 nb         1 5PR      -0.678000
      2 C2          -2.0290     0.7430    -0.1150 ca         1 5PR       0.277300
      3 C3          -1.3710    -0.4890    -0.0260 ca         1 5PR       0.086100
      4 O3          -2.1310    -1.6010    -0.0240 oh         1 5PR      -0.575100
      5 C4           0.0240    -0.5320     0.0730 ca         1 5PR      -0.128300
      6 C5           0.7160     0.6820     0.1150 ca         1 5PR      -0.126600
      7 C6          -0.0350     1.8500     0.0520 ca         1 5PR       0.308900
      8 C2A         -3.5200     0.8020    -0.2420 c3         1 5PR      -0.116400
      9 C4A          0.7020    -1.8670     0.2420 c3         1 5PR       0.192900
     10 O4A          0.0800    -2.8180    -0.6200 oh         1 5PR      -0.686000
     11 O51          2.6430     1.7250     0.9600 o          1 5PR      -0.713000
     12 O52          2.9230     0.0600    -0.4950 o          1 5PR      -0.713000
     13 C5A          2.2330     0.8240     0.2080 c          1 5PR       0.714600
     14 HO3         -1.5440    -2.3580    -0.2260 ho         1 5PR       0.484000
     15 H6           0.4650     2.8120     0.0900 h4         1 5PR       0.029100
     16 H2A         -3.8770     0.2180    -1.0930 hc         1 5PR       0.031367
     17 H2AA        -4.0200     0.4060     0.6450 hc         1 5PR       0.031367
     18 H2AB        -3.8390     1.8330    -0.3760 hc         1 5PR       0.031367
     19 H4A          1.7620    -1.7800     0.0180 h1         1 5PR       0.057200
     20 H4AA         0.6040    -2.1770     1.2900 h1         1 5PR       0.057200
     21 HO4A         0.3650    -3.6990    -0.3560 ho         1 5PR       0.435000
@<TRIPOS>BOND
     1     1     2 ar  
     2     1     7 ar  
     3     2     3 ar  
     4     2     8 1   
     5     3     4 1   
     6     3     5 ar  
     7     4    14 1   
     8     5     6 ar  
     9     5     9 1   
    10     6     7 ar  
    11     6    13 1   
    12     7    15 1   
    13     8    16 1   
    14     8    17 1   
    15     8    18 1   
    16     9    10 1   
    17     9    19 1   
    18     9    20 1   
    19    10    21 1   
    20    11    13 1   
    21    12    13 1   
@<TRIPOS>SUBSTRUCTURE
     1 5PR         1 TEMP              0 ****  ****    0 ROOT
