@<TRIPOS>MOLECULE
5PR
   21    21     1     0     0
SMALL
No Charge or Current Charge


@<TRIPOS>ATOM
      1 N1          -1.3980     1.9340     0.0250 nb         1 5PR      -0.678000
      2 C2          -2.0650     0.7720    -0.1630 ca         1 5PR       0.277300
      3 C3          -1.4200    -0.4960    -0.1770 ca         1 5PR       0.086100
      4 O3          -2.1370    -1.6480    -0.3550 oh         1 5PR      -0.575100
      5 C4          -0.0160    -0.5660     0.0100 ca         1 5PR      -0.128300
      6 C5           0.6700     0.6680     0.1900 ca         1 5PR      -0.126600
      7 C6          -0.0580     1.8690     0.1990 ca         1 5PR       0.308900
      8 C2A         -3.5730     0.9000    -0.3550 c3         1 5PR      -0.116400
      9 C4A          0.7690    -1.8950    -0.0010 c3         1 5PR       0.192900
     10 O4A         -0.0370    -3.0320     0.3570 oh         1 5PR      -0.686000
     11 O51          2.5810     1.4420     1.2950 o          1 5PR      -0.713000
     12 O52          2.8810     0.2230    -0.4540 o          1 5PR      -0.713000
     13 C5A          2.1580     0.7710     0.3650 c          1 5PR       0.714600
     14 HO3         -1.4930    -2.3780    -0.1410 ho         1 5PR       0.484000
     15 H6           0.4490     2.8240     0.3350 h4         1 5PR       0.029100
     16 H2A         -3.8790     0.4800    -1.3200 hc         1 5PR       0.031367
     17 H2AA        -4.1120     0.3610     0.4320 hc         1 5PR       0.031367
     18 H2AB        -3.9070     1.9440    -0.3290 hc         1 5PR       0.031367
     19 H4A          1.1970    -2.0380    -1.0030 h1         1 5PR       0.057200
     20 H4AA         1.6110    -1.8170     0.7000 h1         1 5PR       0.057200
     21 HO4A         0.5760    -3.8000     0.4360 ho         1 5PR       0.435000
@<TRIPOS>BOND
     1     1     2 ar  
     2     1     7 ar  
     3     2     3 ar  
     4     2     8 1   
     5     3     4 1   
     6     3     5 ar  
     7     4    14 1   
     8     5     6 ar  
     9     5     9 1   
    10     6     7 ar  
    11     6    13 1   
    12     7    15 1   
    13     8    16 1   
    14     8    17 1   
    15     8    18 1   
    16     9    10 1   
    17     9    19 1   
    18     9    20 1   
    19    10    21 1   
    20    11    13 1   
    21    12    13 1   
@<TRIPOS>SUBSTRUCTURE
     1 5PR         1 TEMP              0 ****  ****    0 ROOT
