@<TRIPOS>MOLECULE
5PS
   59    63     1     0     0
SMALL
No Charge or Current Charge


@<TRIPOS>ATOM
      1 C1          -6.5370    -2.5610     0.2890 ca         1 5PS      -0.208500
      2 F1           8.2840    -2.1220     1.9390 f          1 5PS      -0.178000
      3 N1          -7.1940    -4.7700     1.0290 nb         1 5PS      -0.683000
      4 O1          -0.5020     0.6530    -1.8130 o          1 5PS      -0.581100
      5 C2          -7.4960    -3.5660     0.4960 ca         1 5PS       0.356900
      6 F2           1.9720     0.5810    -2.9260 f          1 5PS      -0.152000
      7 O2          -2.2110    -2.5970     1.1090 o          1 5PS      -0.559100
      8 C3          -5.9060    -4.9980     1.3720 ca         1 5PS       0.356900
      9 N3          -0.7760    -0.4190     0.1640 ns         1 5PS      -0.485900
     10 C4          -4.8870    -4.0480     1.1990 ca         1 5PS      -0.208500
     11 N4          -0.8130     4.0620     0.9060 na         1 5PS      -0.220700
     12 C5          -5.1980    -2.7910     0.6430 ca         1 5PS       0.023000
     13 C6          -2.8820    -1.6790     0.6470 c          1 5PS       0.602100
     14 C8           0.0060     0.1260    -0.8340 c          1 5PS       0.623700
     15 C9           1.5030     0.0370    -0.6210 ca         1 5PS      -0.189600
     16 C10          2.0430    -0.2850     0.6490 ca         1 5PS      -0.065000
     17 C11          3.4330    -0.3570     0.8430 ca         1 5PS      -0.128000
     18 C12          4.3400    -0.1120    -0.2140 cp         1 5PS       0.011000
     19 C13          5.8210    -0.1920    -0.0030 cp         1 5PS      -0.018000
     20 C14          6.7080     0.6770    -0.6900 ca         1 5PS      -0.110000
     21 C15          8.0990     0.6040    -0.4930 ca         1 5PS      -0.084000
     22 C16          8.6320    -0.3420     0.3970 ca         1 5PS      -0.143000
     23 C17          7.7720    -1.2090     1.0860 ca         1 5PS       0.170000
     24 C18          6.3840    -1.1380     0.8910 ca         1 5PS      -0.141000
     25 C19          3.7940     0.2120    -1.4770 ca         1 5PS      -0.156000
     26 C20          2.4070     0.2870    -1.6800 ca         1 5PS       0.230000
     27 C21         -2.6570     0.8010     1.2550 c3         1 5PS      -0.009200
     28 C22         -2.0940     2.1570     0.9120 cc         1 5PS      -0.156400
     29 C23         -1.0490     2.8220     1.5490 cd         1 5PS      -0.157100
     30 C24         -1.7310     4.1370    -0.1250 ca         1 5PS      -0.047200
     31 C25         -1.9000     5.1750    -1.0510 ca         1 5PS      -0.125000
     32 C26         -2.9120     5.0400    -2.0260 ca         1 5PS      -0.088000
     33 C27         -3.7250     3.8820    -2.0550 ca         1 5PS      -0.133000
     34 C28         -3.5320     2.8530    -1.1090 ca         1 5PS      -0.065000
     35 C29         -2.5170     3.0190    -0.1550 ca         1 5PS      -0.093800
     36 C7          -2.2540    -0.3120     0.2510 c3         1 5PS       0.041700
     37 H1          -6.8450    -1.6130    -0.1440 ha         1 5PS       0.136000
     38 H2          -8.5390    -3.4010     0.2260 h4         1 5PS       0.017600
     39 H3          -5.6850    -5.9750     1.8000 h4         1 5PS       0.017600
     40 HA          -4.6540    -0.9140     0.0290 hn         1 5PS       0.155000
     41 H4          -3.8810    -4.3140     1.5020 ha         1 5PS       0.136000
     42 HB          -0.2890    -0.9040     0.9070 hn         1 5PS       0.330500
     43 H7          -2.6540    -0.0540    -0.7380 h1         1 5PS       0.071700
     44 HC          -0.1130     4.7560     1.1510 hn         1 5PS       0.353000
     45 H23         -0.4570     2.5010     2.4020 h4         1 5PS       0.214000
     46 H10          1.4020    -0.4620     1.5090 ha         1 5PS       0.123000
     47 H11          3.8100    -0.5900     1.8360 ha         1 5PS       0.123000
     48 H19          4.4520     0.3920    -2.3220 ha         1 5PS       0.139000
     49 H14          6.3150     1.4260    -1.3730 ha         1 5PS       0.124000
     50 H18          5.7440    -1.8320     1.4290 ha         1 5PS       0.132000
     51 H15          8.7610     1.2820    -1.0290 ha         1 5PS       0.121000
     52 H16          9.7060    -0.4040     0.5540 ha         1 5PS       0.135000
     53 H211        -2.3270     0.5120     2.2610 hc         1 5PS       0.064200
     54 H212        -3.7510     0.8720     1.3020 hc         1 5PS       0.064200
     55 H25         -1.2710     6.0620    -1.0210 ha         1 5PS       0.116000
     56 H26         -3.0670     5.8290    -2.7590 ha         1 5PS       0.114000
     57 H27         -4.5030     3.7850    -2.8090 ha         1 5PS       0.114000
     58 H28         -4.1520     1.9600    -1.1220 ha         1 5PS       0.109000
     59 N2          -4.2510    -1.7550     0.4220 ns         1 5PS      -0.139000
@<TRIPOS>BOND
     1     1     5 ar  
     2     1    12 ar  
     3     1    37 1   
     4     2    23 1   
     5     3     5 ar  
     6     3     8 ar  
     7     4    14 2   
     8     5    38 1   
     9     6    26 1   
    10     7    13 2   
    11     8    10 ar  
    12     8    39 1   
    13     9    14 1   
    14     9    36 1   
    15     9    42 1   
    16    10    12 ar  
    17    10    41 1   
    18    11    29 1   
    19    11    30 1   
    20    11    44 1   
    21    12    59 1   
    22    13    36 1   
    23    13    59 1   
    24    14    15 1   
    25    15    16 ar  
    26    15    26 ar  
    27    16    17 ar  
    28    16    46 1   
    29    17    18 ar  
    30    17    47 1   
    31    18    19 1   
    32    18    25 ar  
    33    19    20 ar  
    34    19    24 ar  
    35    20    21 ar  
    36    20    49 1   
    37    21    22 ar  
    38    21    51 1   
    39    22    23 ar  
    40    22    52 1   
    41    23    24 ar  
    42    24    50 1   
    43    25    26 ar  
    44    25    48 1   
    45    27    28 1   
    46    27    36 1   
    47    27    53 1   
    48    27    54 1   
    49    28    29 2   
    50    28    35 1   
    51    29    45 1   
    52    30    31 ar  
    53    30    35 ar  
    54    31    32 ar  
    55    31    55 1   
    56    32    33 ar  
    57    32    56 1   
    58    33    34 ar  
    59    33    57 1   
    60    34    35 ar  
    61    34    58 1   
    62    36    43 1   
    63    40    59 1   
@<TRIPOS>SUBSTRUCTURE
     1 5PS         1 TEMP              0 ****  ****    0 ROOT
