@<TRIPOS>MOLECULE
5PS
   59    63     1     0     0
SMALL
bcc


@<TRIPOS>ATOM
      1 C1          -5.9260    -2.7080    -0.9930 ca         1 5PS      -0.291800
      2 F1           8.2040     1.5220     1.3400 f          1 5PS      -0.142900
      3 N1          -6.6600    -4.8860    -0.3280 nb         1 5PS      -0.683000
      4 O1          -0.7370    -1.3770    -1.3510 o          1 5PS      -0.581100
      5 C2          -6.7940    -3.7800    -1.0540 ca         1 5PS       0.422200
      6 F2           1.6050    -2.9230    -0.8690 f          1 5PS      -0.116900
      7 O2          -2.3850    -2.2960     1.4090 o          1 5PS      -0.559100
      8 C3          -5.6210    -4.9310     0.4950 ca         1 5PS       0.422200
      9 N3          -0.8400    -0.1330     0.5170 ns         1 5PS      -0.552900
     10 C4          -4.6830    -3.9210     0.6440 ca         1 5PS      -0.291800
     11 N4          -0.9510     3.9870     2.0420 na         1 5PS      -0.170400
     12 C5          -4.8350    -2.7650    -0.1220 ca         1 5PS       0.115600
     13 C6          -2.8640    -1.4770     0.6560 c          1 5PS       0.669100
     14 C8          -0.1700    -0.7680    -0.4580 c          1 5PS       0.690700
     15 C9           1.3140    -0.6410    -0.3890 ca         1 5PS      -0.189600
     16 C10          1.9230     0.5840    -0.1240 ca         1 5PS      -0.083000
     17 C11          3.3000     0.7160    -0.1260 ca         1 5PS      -0.146000
     18 C12          4.1170    -0.3840    -0.3860 cp         1 5PS       0.011000
     19 C13          5.5870    -0.2550    -0.4010 cp         1 5PS      -0.018000
     20 C14          6.3560    -0.9740    -1.3170 ca         1 5PS      -0.128000
     21 C15          7.7360    -0.8430    -1.3310 ca         1 5PS      -0.102000
     22 C16          8.3790     0.0020    -0.4370 ca         1 5PS      -0.161000
     23 C17          7.6010     0.7060     0.4620 ca         1 5PS       0.134900
     24 C18          6.2260     0.5970     0.5010 ca         1 5PS      -0.159000
     25 C19          3.5190    -1.6170    -0.6410 ca         1 5PS      -0.174000
     26 C20          2.1450    -1.7220    -0.6460 ca         1 5PS       0.194900
     27 C21         -2.7620     0.7990     1.6820 c3         1 5PS      -0.009200
     28 C22         -2.2050     2.1800     1.6200 cc         1 5PS      -0.156400
     29 C23         -1.2440     2.7130     2.4330 cd         1 5PS      -0.107100
     30 C24         -1.7150     4.3150     0.9600 ca         1 5PS      -0.047200
     31 C25         -1.7780     5.4940     0.2190 ca         1 5PS      -0.143000
     32 C26         -2.6690     5.5360    -0.8370 ca         1 5PS      -0.106000
     33 C27         -3.4830     4.4340    -1.1510 ca         1 5PS      -0.151000
     34 C28         -3.4180     3.2680    -0.4140 ca         1 5PS      -0.083000
     35 C29         -2.5230     3.1960     0.6600 ca         1 5PS      -0.093800
     36 C7          -2.2740    -0.0740     0.5130 c3         1 5PS       0.041700
     37 H1          -6.0990    -1.8390    -1.6140 ha         1 5PS       0.154000
     38 H2          -7.6430    -3.7380    -1.7280 h4         1 5PS       0.017600
     39 H3          -5.5110    -5.8340     1.0870 h4         1 5PS       0.017600
     40 HA          -4.2420    -0.9160    -0.7110 hn         1 5PS       0.321500
     41 H4          -3.8720    -4.0510     1.3400 ha         1 5PS       0.154000
     42 HB          -0.3390     0.2760     1.2900 hn         1 5PS       0.330500
     43 H7          -2.6090     0.3720    -0.4290 h1         1 5PS       0.071700
     44 HC          -0.2800     4.5860     2.4910 hn         1 5PS       0.302700
     45 H23         -0.7450     2.2710     3.2820 h4         1 5PS       0.164000
     46 H10          1.3120     1.4600     0.0530 ha         1 5PS       0.141000
     47 H11          3.7360     1.6910     0.0510 ha         1 5PS       0.141000
     48 H19          4.1160    -2.5030    -0.8140 ha         1 5PS       0.157000
     49 H14          5.8750    -1.6220    -2.0380 ha         1 5PS       0.142000
     50 H18          5.6640     1.1520     1.2420 ha         1 5PS       0.150000
     51 H15          8.3220    -1.3980    -2.0520 ha         1 5PS       0.139000
     52 H16          9.4550     0.1120    -0.4400 ha         1 5PS       0.153000
     53 H211        -2.4780     0.3240     2.6240 hc         1 5PS       0.064200
     54 H212        -3.8540     0.8190     1.6590 hc         1 5PS       0.064200
     55 H25         -1.1540     6.3450     0.4600 ha         1 5PS       0.134000
     56 H26         -2.7440     6.4370    -1.4320 ha         1 5PS       0.132000
     57 H27         -4.1690     4.5040    -1.9850 ha         1 5PS       0.132000
     58 H28         -4.0550     2.4280    -0.6630 ha         1 5PS       0.127000
     59 N2          -3.9890    -1.6670    -0.0850 ns         1 5PS      -0.465100
@<TRIPOS>BOND
     1     1     5 ar  
     2     1    12 ar  
     3     1    37 1   
     4     2    23 1   
     5     3     5 ar  
     6     3     8 ar  
     7     4    14 2   
     8     5    38 1   
     9     6    26 1   
    10     7    13 2   
    11     8    10 ar  
    12     8    39 1   
    13     9    14 1   
    14     9    36 1   
    15     9    42 1   
    16    10    12 ar  
    17    10    41 1   
    18    11    29 1   
    19    11    30 1   
    20    11    44 1   
    21    12    59 1   
    22    13    36 1   
    23    13    59 1   
    24    14    15 1   
    25    15    16 ar  
    26    15    26 ar  
    27    16    17 ar  
    28    16    46 1   
    29    17    18 ar  
    30    17    47 1   
    31    18    19 1   
    32    18    25 ar  
    33    19    20 ar  
    34    19    24 ar  
    35    20    21 ar  
    36    20    49 1   
    37    21    22 ar  
    38    21    51 1   
    39    22    23 ar  
    40    22    52 1   
    41    23    24 ar  
    42    24    50 1   
    43    25    26 ar  
    44    25    48 1   
    45    27    28 1   
    46    27    36 1   
    47    27    53 1   
    48    27    54 1   
    49    28    29 2   
    50    28    35 1   
    51    29    45 1   
    52    30    31 ar  
    53    30    35 ar  
    54    31    32 ar  
    55    31    55 1   
    56    32    33 ar  
    57    32    56 1   
    58    33    34 ar  
    59    33    57 1   
    60    34    35 ar  
    61    34    58 1   
    62    36    43 1   
    63    40    59 1   
@<TRIPOS>SUBSTRUCTURE
     1 5PS         1 TEMP              0 ****  ****    0 ROOT
