@<TRIPOS>MOLECULE
5PU
   33    33     1     0     0
SMALL
No Charge or Current Charge


@<TRIPOS>ATOM
      1 CAG         -1.9720     1.4950     0.6480 ca         1 5PU      -0.145000
      2 CAI         -3.1920     0.8190     0.8210 ca         1 5PU      -0.093500
      3 CAS         -3.6520    -0.1050    -0.1470 ca         1 5PU      -0.150600
      4 CAO         -4.9730    -0.8390     0.0380 c          1 5PU       0.715600
      5 OAE         -5.6340    -0.6150     1.0440 o          1 5PU      -0.741000
      6 OAA         -5.3340    -1.6270    -0.8240 o          1 5PU      -0.741000
      7 CAJ         -2.8510    -0.3290    -1.2920 ca         1 5PU      -0.093500
      8 CAH         -1.6320     0.3490    -1.4620 ca         1 5PU      -0.145000
      9 CAR         -1.1830     1.2650    -0.4930 ca         1 5PU      -0.089300
     10 CAM          0.1410     2.0020    -0.6770 c3         1 5PU      -0.009100
     11 CAT          1.2650     1.5070     0.2740 c3         1 5PU      -0.185700
     12 CAP          2.4970     2.4390     0.1760 c          1 5PU       0.709000
     13 OAF          2.8180     3.0750     1.1690 o          1 5PU      -0.749000
     14 OAB          3.1010     2.5050    -0.8840 o          1 5PU      -0.749000
     15 CAL          1.6350     0.0150     0.0280 c3         1 5PU      -0.042400
     16 CAK          2.6940    -0.5420     1.0110 c3         1 5PU      -0.148400
     17 CAQ          2.9730    -2.0280     0.7560 c          1 5PU       0.596100
     18 OAC          2.1860    -2.9090     1.0790 o          1 5PU      -0.585100
     19 NAN          4.1980    -2.3040     0.1540 ns         1 5PU      -0.398400
     20 OAD          4.7200    -3.6540     0.0980 oh         1 5PU      -0.453100
     21 H1          -1.6400     2.2020     1.4050 ha         1 5PU       0.087500
     22 H2          -3.7810     1.0170     1.7140 ha         1 5PU       0.112000
     23 H4          -3.1720    -1.0330    -2.0570 ha         1 5PU       0.112000
     24 H5          -1.0340     0.1580    -2.3500 ha         1 5PU       0.087500
     25 H6           0.4830     1.9180    -1.7160 hc         1 5PU       0.038700
     26 H7          -0.0190     3.0740    -0.5010 hc         1 5PU       0.038700
     27 H8           0.8780     1.5840     1.2970 hc         1 5PU       0.038700
     28 H10          0.7300    -0.5980     0.1120 hc         1 5PU       0.046200
     29 H11          1.9990    -0.1060    -1.0000 hc         1 5PU       0.046200
     30 H12          3.6210     0.0330     0.8970 hc         1 5PU       0.064700
     31 H13          2.3120    -0.4300     2.0330 hc         1 5PU       0.064700
     32 H14          4.8780    -1.5530     0.0410 hn         1 5PU       0.329500
     33 H15          4.9720    -3.7650    -0.8490 ho         1 5PU       0.432000
@<TRIPOS>BOND
     1     1     2 ar  
     2     1     9 ar  
     3     1    21 1   
     4     2     3 ar  
     5     2    22 1   
     6     3     4 1   
     7     3     7 ar  
     8     4     5 1   
     9     4     6 1   
    10     7     8 ar  
    11     7    23 1   
    12     8     9 ar  
    13     8    24 1   
    14     9    10 1   
    15    10    11 1   
    16    10    25 1   
    17    10    26 1   
    18    11    12 1   
    19    11    15 1   
    20    11    27 1   
    21    12    13 1   
    22    12    14 1   
    23    15    16 1   
    24    15    28 1   
    25    15    29 1   
    26    16    17 1   
    27    16    30 1   
    28    16    31 1   
    29    17    18 2   
    30    17    19 1   
    31    19    20 1   
    32    19    32 1   
    33    20    33 1   
@<TRIPOS>SUBSTRUCTURE
     1 5PU         1 TEMP              0 ****  ****    0 ROOT
