@<TRIPOS>MOLECULE
5PU
   33    33     1     0     0
SMALL
bcc


@<TRIPOS>ATOM
      1 CAG         -1.9490     1.4620     0.6720 ca         1 5PU      -0.163000
      2 CAI         -3.1420     0.7780     0.8460 ca         1 5PU      -0.111500
      3 CAS         -3.6030    -0.1200    -0.1150 ca         1 5PU      -0.150600
      4 CAO         -4.9170    -0.8630     0.0740 c          1 5PU       0.926200
      5 OAE         -5.5450    -0.6330     1.1260 o          1 5PU      -0.846300
      6 OAA         -5.2580    -1.6400    -0.8400 o          1 5PU      -0.846300
      7 CAJ         -2.8270    -0.3120    -1.2540 ca         1 5PU      -0.111500
      8 CAH         -1.6310     0.3730    -1.4280 ca         1 5PU      -0.163000
      9 CAR         -1.1710     1.2730    -0.4700 ca         1 5PU      -0.089300
     10 CAM          0.1280     2.0080    -0.6410 c3         1 5PU      -0.009100
     11 CAT          1.2510     1.4800     0.2700 c3         1 5PU      -0.185700
     12 CAP          2.4600     2.4320     0.1740 c          1 5PU       0.919600
     13 OAF          2.7150     3.1410     1.1690 o          1 5PU      -0.854300
     14 OAB          3.0780     2.4320    -0.9110 o          1 5PU      -0.854300
     15 CAL          1.6240     0.0480    -0.0960 c3         1 5PU      -0.042400
     16 CAK          2.7110    -0.5220     0.8120 c3         1 5PU      -0.148400
     17 CAQ          2.9530    -1.9920     0.5610 c          1 5PU       0.663100
     18 OAC          2.0590    -2.8200     0.5130 o          1 5PU      -0.585100
     19 NAN          4.2510    -2.3000     0.3720 ns         1 5PU      -0.465400
     20 OAD          4.6450    -3.6040     0.3300 oh         1 5PU      -0.414100
     21 H1          -1.6170     2.1580     1.4350 ha         1 5PU       0.105500
     22 H2          -3.7300     0.9460     1.7400 ha         1 5PU       0.130000
     23 H4          -3.1630    -1.0030    -2.0160 ha         1 5PU       0.130000
     24 H5          -1.0470     0.2090    -2.3270 ha         1 5PU       0.105500
     25 H6           0.4550     1.9500    -1.6820 hc         1 5PU       0.038700
     26 H7          -0.0330     3.0680    -0.4200 hc         1 5PU       0.038700
     27 H8           0.8810     1.4900     1.3020 hc         1 5PU       0.038700
     28 H10          0.7400    -0.5890    -0.0370 hc         1 5PU       0.046200
     29 H11          1.9640     0.0190    -1.1350 hc         1 5PU       0.046200
     30 H12          3.6350     0.0500     0.7010 hc         1 5PU       0.064700
     31 H13          2.4070    -0.4210     1.8590 hc         1 5PU       0.064700
     32 H14          4.9930    -1.6440     0.5680 hn         1 5PU       0.329500
     33 H15          4.7130    -3.8330    -0.6060 ho         1 5PU       0.393000
@<TRIPOS>BOND
     1     1     2 ar  
     2     1     9 ar  
     3     1    21 1   
     4     2     3 ar  
     5     2    22 1   
     6     3     4 1   
     7     3     7 ar  
     8     4     5 1   
     9     4     6 1   
    10     7     8 ar  
    11     7    23 1   
    12     8     9 ar  
    13     8    24 1   
    14     9    10 1   
    15    10    11 1   
    16    10    25 1   
    17    10    26 1   
    18    11    12 1   
    19    11    15 1   
    20    11    27 1   
    21    12    13 1   
    22    12    14 1   
    23    15    16 1   
    24    15    28 1   
    25    15    29 1   
    26    16    17 1   
    27    16    30 1   
    28    16    31 1   
    29    17    18 2   
    30    17    19 1   
    31    19    20 1   
    32    19    32 1   
    33    20    33 1   
@<TRIPOS>SUBSTRUCTURE
     1 5PU         1 TEMP              0 ****  ****    0 ROOT
