@<TRIPOS>MOLECULE
5PV
   26    26     1     0     0
SMALL
No Charge or Current Charge


@<TRIPOS>ATOM
      1 C1          -0.0810     0.4320    -2.1450 ca         1 5PV      -0.056300
      2 C2          -1.2620     0.0290    -2.7980 ca         1 5PV      -0.111000
      3 C3          -1.2110    -0.4720    -4.1110 ca         1 5PV      -0.115000
      4 C4           0.0210    -0.5740    -4.7770 ca         1 5PV      -0.128000
      5 C5           1.2030    -0.1750    -4.1300 ca         1 5PV      -0.115000
      6 C6           1.1520     0.3260    -2.8180 ca         1 5PV      -0.111000
      7 C7          -0.1360     0.9710    -0.7210 c3         1 5PV      -0.040100
      8 C8           0.0110    -0.1490     0.3310 c3         1 5PV      -0.076400
      9 C9          -0.0420     0.3720     1.7850 c3         1 5PV      -0.054400
     10 C10          0.1060    -0.7520     2.8400 c3         1 5PV      -0.205400
     11 C11          0.0440    -0.1600     4.2600 c          1 5PV       0.717000
     12 O1          -1.0500    -0.0480     4.7910 o          1 5PV      -0.743000
     13 O2           1.0870     0.2160     4.7740 o          1 5PV      -0.743000
     14 H2          -2.2200     0.1020    -2.2880 ha         1 5PV       0.112000
     15 H3          -2.1270    -0.7820    -4.6100 ha         1 5PV       0.101000
     16 H4           0.0610    -0.9610    -5.7930 ha         1 5PV       0.100000
     17 H5           2.1580    -0.2540    -4.6450 ha         1 5PV       0.101000
     18 H6           2.0710     0.6300    -2.3220 ha         1 5PV       0.112000
     19 H71         -1.0840     1.4990    -0.5560 hc         1 5PV       0.044700
     20 H72          0.6570     1.7130    -0.5700 hc         1 5PV       0.044700
     21 H81          0.9620    -0.6710     0.1670 hc         1 5PV       0.029700
     22 H82         -0.7880    -0.8860     0.1820 hc         1 5PV       0.029700
     23 H91         -0.9930     0.8940     1.9450 hc         1 5PV       0.038200
     24 H92          0.7560     1.1100     1.9310 hc         1 5PV       0.038200
     25 H101         1.0860    -1.2090     2.6570 hc         1 5PV       0.015700
     26 H102        -0.7370    -1.4340     2.6720 hc         1 5PV       0.015700
@<TRIPOS>BOND
     1     1     2 ar  
     2     1     6 ar  
     3     1     7 1   
     4     2     3 ar  
     5     2    14 1   
     6     3     4 ar  
     7     3    15 1   
     8     4     5 ar  
     9     4    16 1   
    10     5     6 ar  
    11     5    17 1   
    12     6    18 1   
    13     7     8 1   
    14     7    19 1   
    15     7    20 1   
    16     8     9 1   
    17     8    21 1   
    18     8    22 1   
    19     9    10 1   
    20     9    23 1   
    21     9    24 1   
    22    10    11 1   
    23    10    25 1   
    24    10    26 1   
    25    11    12 1   
    26    11    13 1   
@<TRIPOS>SUBSTRUCTURE
     1 5PV         1 TEMP              0 ****  ****    0 ROOT
