@<TRIPOS>MOLECULE
5PV
   26    26     1     0     0
SMALL
abcg2


@<TRIPOS>ATOM
      1 C1          -0.0220     0.4610    -2.1380 ca         1 5PV      -0.056300
      2 C2          -1.2120     0.1660    -2.8010 ca         1 5PV      -0.111000
      3 C3          -1.2030    -0.3630    -4.0850 ca         1 5PV      -0.115000
      4 C4           0.0020    -0.6090    -4.7300 ca         1 5PV      -0.128000
      5 C5           1.1950    -0.3190    -4.0800 ca         1 5PV      -0.115000
      6 C6           1.1800     0.2100    -2.7970 ca         1 5PV      -0.111000
      7 C7          -0.0340     0.9940    -0.7330 c3         1 5PV      -0.040100
      8 C8          -0.0230    -0.1180     0.3180 c3         1 5PV      -0.076400
      9 C9          -0.0220     0.4230     1.7420 c3         1 5PV      -0.054400
     10 C10         -0.0130    -0.6760     2.7890 c3         1 5PV      -0.205400
     11 C11          0.0040    -0.2120     4.2570 c          1 5PV       0.717000
     12 O1           0.0020    -1.1200     5.1160 o          1 5PV      -0.743000
     13 O2           0.0210     1.0140     4.4810 o          1 5PV      -0.743000
     14 H2          -2.1590     0.3590    -2.3090 ha         1 5PV       0.112000
     15 H3          -2.1400    -0.5790    -4.5840 ha         1 5PV       0.101000
     16 H4           0.0120    -1.0190    -5.7320 ha         1 5PV       0.100000
     17 H5           2.1410    -0.5020    -4.5750 ha         1 5PV       0.101000
     18 H6           2.1170     0.4360    -2.3000 ha         1 5PV       0.112000
     19 H71         -0.9180     1.6200    -0.5830 hc         1 5PV       0.044700
     20 H72          0.8330     1.6420    -0.5770 hc         1 5PV       0.044700
     21 H81          0.8570    -0.7530     0.1640 hc         1 5PV       0.029700
     22 H82         -0.8930    -0.7670     0.1680 hc         1 5PV       0.029700
     23 H91         -0.8970     1.0650     1.8820 hc         1 5PV       0.038200
     24 H92          0.8480     1.0730     1.8770 hc         1 5PV       0.038200
     25 H101         0.8530    -1.3300     2.6310 hc         1 5PV       0.015700
     26 H102        -0.8840    -1.3280     2.6490 hc         1 5PV       0.015700
@<TRIPOS>BOND
     1     1     2 ar  
     2     1     6 ar  
     3     1     7 1   
     4     2     3 ar  
     5     2    14 1   
     6     3     4 ar  
     7     3    15 1   
     8     4     5 ar  
     9     4    16 1   
    10     5     6 ar  
    11     5    17 1   
    12     6    18 1   
    13     7     8 1   
    14     7    19 1   
    15     7    20 1   
    16     8     9 1   
    17     8    21 1   
    18     8    22 1   
    19     9    10 1   
    20     9    23 1   
    21     9    24 1   
    22    10    11 1   
    23    10    25 1   
    24    10    26 1   
    25    11    12 1   
    26    11    13 1   
@<TRIPOS>SUBSTRUCTURE
     1 5PV         1 TEMP              0 ****  ****    0 ROOT
