@<TRIPOS>MOLECULE
5PW
   23    24     1     0     0
SMALL
abcg2


@<TRIPOS>ATOM
      1 CAA          5.6570    -0.0040     0.0210 c3         1 5PW      -0.185100
      2 OAB          4.0330     1.7600    -0.1210 o          1 5PW      -0.498100
      3 OAC         -4.9110     0.7530     0.0150 o          1 5PW      -0.400000
      4 OAD         -4.4510    -1.3290     0.0660 o          1 5PW      -0.400000
      5 CAE         -2.3080     1.4850    -0.0290 ca         1 5PW      -0.045000
      6 CAF         -0.9660     1.7990    -0.0460 ca         1 5PW      -0.078000
      7 CAG         -1.8000    -0.9000     0.0450 ca         1 5PW       0.010000
      8 NAH          1.3330     0.9480    -0.0300 nc         1 5PW      -0.563100
      9 NAI          3.2840    -0.3900     0.0110 ns         1 5PW      -0.421400
     10 SAJ          0.9110    -1.6170     0.0550 ss         1 5PW       0.002800
     11 CAK          4.2740     0.5820    -0.0420 c          1 5PW       0.608100
     12 CAL         -2.7080     0.1480     0.0160 ca         1 5PW      -0.188200
     13 CAM          1.9370    -0.1890     0.0050 cd         1 5PW       0.501800
     14 CAN         -0.0220     0.7730    -0.0180 ca         1 5PW       0.170400
     15 CAO         -0.4620    -0.5630     0.0270 ca         1 5PW      -0.218000
     16 HAA          5.8110    -0.5050     0.9790 hc         1 5PW       0.069700
     17 HAAA         5.8030    -0.7480    -0.7630 hc         1 5PW       0.069700
     18 HAAB         6.4000     0.7800    -0.0900 hc         1 5PW       0.069700
     19 HAE         -3.0400     2.2780    -0.0490 ha         1 5PW       0.155000
     20 HAF         -0.6430     2.8310    -0.0810 ha         1 5PW       0.150000
     21 HAG         -2.1200    -1.9320     0.0810 ha         1 5PW       0.160000
     22 HAI          3.6010    -1.3480     0.0650 hn         1 5PW       0.332500
     23 NAP         -4.1240    -0.1640     0.0330 no         1 5PW       0.696200
@<TRIPOS>BOND
     1     1    11 1   
     2     1    16 1   
     3     1    17 1   
     4     1    18 1   
     5     2    11 2   
     6     3    23 1   
     7     4    23 1   
     8     5     6 ar  
     9     5    12 ar  
    10     5    19 1   
    11     6    14 ar  
    12     6    20 1   
    13     7    12 ar  
    14     7    15 ar  
    15     7    21 1   
    16     8    13 2   
    17     8    14 1   
    18     9    11 1   
    19     9    13 1   
    20     9    22 1   
    21    10    13 1   
    22    10    15 1   
    23    12    23 1   
    24    14    15 ar  
@<TRIPOS>SUBSTRUCTURE
     1 5PW         1 TEMP              0 ****  ****    0 ROOT
