@<TRIPOS>MOLECULE
5PW
   23    24     1     0     0
SMALL
No Charge or Current Charge


@<TRIPOS>ATOM
      1 CAA          5.7190    -0.0080     0.0060 c3         1 5PW      -0.185100
      2 OAB          4.1270     1.7850    -0.0720 o          1 5PW      -0.498100
      3 OAC         -5.0490     0.7280    -0.0060 o          1 5PW      -0.400000
      4 OAD         -4.5510    -1.3940     0.0880 o          1 5PW      -0.400000
      5 CAE         -2.3480     1.4960    -0.0460 ca         1 5PW      -0.045000
      6 CAF         -0.9750     1.8130    -0.0630 ca         1 5PW      -0.078000
      7 CAG         -1.7980    -0.8830     0.0600 ca         1 5PW       0.010000
      8 NAH          1.3530     1.0140    -0.0320 nc         1 5PW      -0.563100
      9 NAI          3.3120    -0.3660     0.0260 ns         1 5PW      -0.421400
     10 SAJ          0.9100    -1.6360     0.0880 ss         1 5PW       0.002800
     11 CAK          4.3130     0.5790    -0.0180 c          1 5PW       0.608100
     12 CAL         -2.7730     0.1420     0.0160 ca         1 5PW      -0.188200
     13 CAM          1.9490    -0.1850     0.0210 cd         1 5PW       0.501800
     14 CAN         -0.0200     0.7870    -0.0190 ca         1 5PW       0.170400
     15 CAO         -0.4410    -0.5250     0.0410 ca         1 5PW      -0.218000
     16 HAA          5.8260    -0.6470     0.8890 hc         1 5PW       0.069700
     17 HAAA         5.8230    -0.7240    -0.8170 hc         1 5PW       0.069700
     18 HAAB         6.4970     0.7630    -0.0310 hc         1 5PW       0.069700
     19 HAE         -3.0730     2.3070    -0.0810 ha         1 5PW       0.155000
     20 HAF         -0.6530     2.8500    -0.1110 ha         1 5PW       0.150000
     21 HAG         -2.0800    -1.9340     0.1080 ha         1 5PW       0.160000
     22 HAI          3.6490    -1.3170     0.0690 hn         1 5PW       0.332500
     23 NAP         -4.2300    -0.1990     0.0340 no         1 5PW       0.696200
@<TRIPOS>BOND
     1     1    11 1   
     2     1    16 1   
     3     1    17 1   
     4     1    18 1   
     5     2    11 2   
     6     3    23 1   
     7     4    23 1   
     8     5     6 ar  
     9     5    12 ar  
    10     5    19 1   
    11     6    14 ar  
    12     6    20 1   
    13     7    12 ar  
    14     7    15 ar  
    15     7    21 1   
    16     8    13 2   
    17     8    14 1   
    18     9    11 1   
    19     9    13 1   
    20     9    22 1   
    21    10    13 1   
    22    10    15 1   
    23    12    23 1   
    24    14    15 ar  
@<TRIPOS>SUBSTRUCTURE
     1 5PW         1 TEMP              0 ****  ****    0 ROOT
