@<TRIPOS>MOLECULE
5PX
   28    30     1     0     0
SMALL
abcg2


@<TRIPOS>ATOM
      1 C1           0.5510     2.0360     0.2280 ca         1 5PX      -0.148000
      2 C2          -0.5680     2.8330     0.1100 ca         1 5PX      -0.056000
      3 C3          -1.8340     2.2800    -0.0850 ca         1 5PX       0.093100
      4 C4          -1.9470     0.9050    -0.1530 ca         1 5PX      -0.077000
      5 C5          -0.8120     0.1040    -0.0330 ca         1 5PX      -0.327500
      6 N1           0.4750    -2.2160    -0.2700 n7         1 5PX      -0.837300
      7 C6           1.4130    -1.5450     0.6120 c6         1 5PX       0.458000
      8 N2           1.5990    -0.1640     0.2350 nh         1 5PX      -0.829400
      9 C7           0.4740     0.6360     0.1530 ca         1 5PX       0.363000
     10 O1          -2.8840     3.1210    -0.1930 oh         1 5PX      -0.533100
     11 S1          -1.0650    -1.6380    -0.1160 sy         1 5PX       1.147600
     12 O2          -1.5840    -2.0900     1.1630 o          1 5PX      -0.530000
     13 O3          -1.7980    -1.9810    -1.3230 o          1 5PX      -0.530000
     14 C8           2.8690     0.4240     0.5060 cx         1 5PX       0.149500
     15 C9           3.5540     1.1880    -0.5860 cx         1 5PX      -0.125400
     16 C10          4.0650    -0.1560    -0.1800 cx         1 5PX      -0.125400
     17 H1           1.5060     2.5150     0.3910 ha         1 5PX       0.123000
     18 H2          -0.4590     3.9080     0.1770 ha         1 5PX       0.130000
     19 H3          -2.9170     0.4440    -0.3080 ha         1 5PX       0.128000
     20 H4           0.7770    -2.2200    -1.2410 hn         1 5PX       0.486000
     21 H5           1.0500    -1.6520     1.6400 h2         1 5PX       0.082200
     22 H6           2.3670    -2.0620     0.5480 h2         1 5PX       0.082200
     23 H7          -3.7050     2.6270    -0.2900 ho         1 5PX       0.468000
     24 H8           3.0220     0.7860     1.5220 h1         1 5PX       0.081700
     25 H9           3.0380     1.2600    -1.5350 hc         1 5PX       0.081950
     26 H10          4.1150     2.0710    -0.3070 hc         1 5PX       0.081950
     27 H11          4.9840    -0.2150     0.3890 hc         1 5PX       0.081950
     28 H12          3.9070    -0.9790    -0.8660 hc         1 5PX       0.081950
@<TRIPOS>BOND
     1     1     2 ar  
     2     1     9 ar  
     3     1    17 1   
     4     2     3 ar  
     5     2    18 1   
     6     3     4 ar  
     7     3    10 1   
     8     4     5 ar  
     9     4    19 1   
    10     5     9 ar  
    11     5    11 1   
    12     6     7 1   
    13     6    11 1   
    14     6    20 1   
    15     7     8 1   
    16     7    21 1   
    17     7    22 1   
    18     8     9 1   
    19     8    14 1   
    20    10    23 1   
    21    11    12 2   
    22    11    13 2   
    23    14    15 1   
    24    14    16 1   
    25    14    24 1   
    26    15    16 1   
    27    15    25 1   
    28    15    26 1   
    29    16    27 1   
    30    16    28 1   
@<TRIPOS>SUBSTRUCTURE
     1 5PX         1 TEMP              0 ****  ****    0 ROOT
