@<TRIPOS>MOLECULE
5PX
   28    30     1     0     0
SMALL
No Charge or Current Charge


@<TRIPOS>ATOM
      1 C1           0.5220     2.0660     0.5010 ca         1 5PX      -0.148000
      2 C2          -0.6170     2.8730     0.3200 ca         1 5PX      -0.056000
      3 C3          -1.8410     2.2910    -0.0470 ca         1 5PX       0.093100
      4 C4          -1.9210     0.9000    -0.2330 ca         1 5PX      -0.077000
      5 C5          -0.7720     0.0990    -0.0480 ca         1 5PX      -0.327500
      6 N1           0.7110    -2.1540    -0.0480 n7         1 5PX      -0.837300
      7 C6           1.2910    -1.4680     1.0550 c6         1 5PX       0.458000
      8 N2           1.5770    -0.1560     0.5000 nh         1 5PX      -0.829400
      9 C7           0.4500     0.6710     0.3180 ca         1 5PX       0.363000
     10 O1          -2.9420     3.0810    -0.2210 oh         1 5PX      -0.533100
     11 S1          -0.8470    -1.6580    -0.3110 sy         1 5PX       1.147600
     12 O2          -1.6710    -2.2790     0.7310 o          1 5PX      -0.530000
     13 O3          -1.1090    -1.9110    -1.7290 o          1 5PX      -0.530000
     14 C8           2.9590     0.3480     0.4060 cx         1 5PX       0.149500
     15 C9           3.4170     1.1010    -0.8190 cx         1 5PX      -0.125400
     16 C10          3.9330    -0.2910    -0.5530 cx         1 5PX      -0.125400
     17 H1           1.4560     2.5310     0.7960 ha         1 5PX       0.123000
     18 H2          -0.5500     3.9480     0.4670 ha         1 5PX       0.130000
     19 H3          -2.8650     0.4400    -0.5230 ha         1 5PX       0.128000
     20 H4           1.1650    -1.6930    -0.8270 hn         1 5PX       0.486000
     21 H5           0.6110    -1.4190     1.9230 h2         1 5PX       0.082200
     22 H6           2.2310    -1.9650     1.3490 h2         1 5PX       0.082200
     23 H7          -3.7040     2.5160    -0.4730 ho         1 5PX       0.468000
     24 H8           3.3700     0.6740     1.3630 h1         1 5PX       0.081700
     25 H9           2.7060     1.2310    -1.6300 hc         1 5PX       0.081950
     26 H10          4.0980     1.9350    -0.6690 hc         1 5PX       0.081950
     27 H11          4.9630    -0.3970    -0.2230 hc         1 5PX       0.081950
     28 H12          3.5720    -1.0940    -1.1890 hc         1 5PX       0.081950
@<TRIPOS>BOND
     1     1     2 ar  
     2     1     9 ar  
     3     1    17 1   
     4     2     3 ar  
     5     2    18 1   
     6     3     4 ar  
     7     3    10 1   
     8     4     5 ar  
     9     4    19 1   
    10     5     9 ar  
    11     5    11 1   
    12     6     7 1   
    13     6    11 1   
    14     6    20 1   
    15     7     8 1   
    16     7    21 1   
    17     7    22 1   
    18     8     9 1   
    19     8    14 1   
    20    10    23 1   
    21    11    12 2   
    22    11    13 2   
    23    14    15 1   
    24    14    16 1   
    25    14    24 1   
    26    15    16 1   
    27    15    25 1   
    28    15    26 1   
    29    16    27 1   
    30    16    28 1   
@<TRIPOS>SUBSTRUCTURE
     1 5PX         1 TEMP              0 ****  ****    0 ROOT
