@<TRIPOS>MOLECULE
5PZ
   50    53     1     0     0
SMALL
bcc


@<TRIPOS>ATOM
      1 C10         -1.4730     0.3660     0.6310 cc         1 5PZ       0.615300
      2 N12         -0.6360    -0.6260     0.1810 na         1 5PZ      -0.205300
      3 C13          0.7380    -0.3930    -0.2020 c3         1 5PZ       0.028300
      4 C17          3.6940    -1.5690     0.3420 ca         1 5PZ      -0.122000
      5 C21          5.1090     0.6740    -0.4290 ca         1 5PZ       0.021400
      6 C24         -1.3470    -1.7990     0.0140 ca         1 5PZ      -0.023200
      7 C26         -1.9530    -4.0400    -0.4750 ca         1 5PZ      -0.125000
      8 C28         -3.6560    -2.4890     0.2830 ca         1 5PZ      -0.123000
      9 C02         -6.0080     1.5830     0.3230 ca         1 5PZ      -0.070300
     10 C03         -6.7950     2.0600    -0.7210 ca         1 5PZ      -0.125000
     11 C04         -6.3750     1.9710    -2.0410 ca         1 5PZ      -0.119000
     12 C05         -5.1470     1.3990    -2.3310 ca         1 5PZ      -0.128000
     13 C06         -4.3490     0.9210    -1.2990 ca         1 5PZ      -0.108000
     14 C07         -4.7670     1.0050     0.0230 ca         1 5PZ      -0.117300
     15 C08         -3.9080     0.4990     1.1600 c3         1 5PZ       0.107600
     16 N09         -2.7230    -0.1950     0.7410 na         1 5PZ      -0.237300
     17 N11         -1.0580     1.5530     0.8870 n2         1 5PZ      -0.937100
     18 C14          1.6920    -0.1860     0.9850 c3         1 5PZ       0.200400
     19 O15          1.5190     1.0510     1.6110 oh         1 5PZ      -0.630800
     20 C16          3.1100    -0.3130     0.4760 ca         1 5PZ      -0.085300
     21 C18          4.9700    -1.7070    -0.1750 ca         1 5PZ      -0.118000
     22 C19          5.6830    -0.5840    -0.5650 ca         1 5PZ       0.026400
     23 CL1          7.2730    -0.7640    -1.2040 cl         1 5PZ      -0.084400
     24 C23          3.8290     0.8090     0.0890 ca         1 5PZ      -0.085000
     25 C25         -0.9640    -3.0590    -0.4030 ca         1 5PZ      -0.131000
     26 C27         -3.2730    -3.7620    -0.1390 ca         1 5PZ      -0.128000
     27 C29         -2.6720    -1.5240     0.3580 ca         1 5PZ      -0.032200
     28 H1           1.0610    -1.2530    -0.7870 h1         1 5PZ       0.067700
     29 H2           0.7870     0.4770    -0.8640 h1         1 5PZ       0.067700
     30 H3           3.1530    -2.4560     0.6500 ha         1 5PZ       0.135000
     31 H4          -1.6810    -5.0360    -0.7970 ha         1 5PZ       0.136000
     32 H5          -4.6860    -2.2730     0.5360 ha         1 5PZ       0.144000
     33 H6          -5.7700     2.1990     2.3820 hc         1 5PZ       0.043367
     34 H7          -7.4290     2.2290     1.7970 hc         1 5PZ       0.043367
     35 H8          -6.6560     0.6980     2.1810 hc         1 5PZ       0.043367
     36 H9          -7.7530     2.5110    -0.4920 ha         1 5PZ       0.131000
     37 H10         -7.0060     2.3470    -2.8370 ha         1 5PZ       0.134000
     38 H11         -4.8050     1.3230    -3.3550 ha         1 5PZ       0.135000
     39 H12         -3.3930     0.4780    -1.5460 ha         1 5PZ       0.139000
     40 H13         -3.6120     1.3290     1.8070 h1         1 5PZ       0.064700
     41 H14         -4.4830    -0.1710     1.8040 h1         1 5PZ       0.064700
     42 H15         -1.7840     2.1850     1.1950 hn         1 5PZ       0.413400
     43 H17          1.5140    -1.0130     1.6910 h1         1 5PZ       0.046700
     44 H18          0.6160     1.3950     1.4070 ho         1 5PZ       0.467000
     45 H19          5.4160    -2.6870    -0.2740 ha         1 5PZ       0.148000
     46 H20          3.4010     1.7960     0.1950 ha         1 5PZ       0.168000
     47 H21          0.0600    -3.2890    -0.6630 ha         1 5PZ       0.141000
     48 H22         -4.0190    -4.5410    -0.2080 ha         1 5PZ       0.136000
     49 CL2          5.9780     2.0870    -0.8980 cl         1 5PZ      -0.083400
     50 C01         -6.4890     1.6840     1.7420 c3         1 5PZ      -0.052800
@<TRIPOS>BOND
     1     1     2 1   
     2     1    16 1   
     3     1    17 2   
     4     2     3 1   
     5     2     6 1   
     6     3    18 1   
     7     3    28 1   
     8     3    29 1   
     9     4    20 ar  
    10     4    21 ar  
    11     4    30 1   
    12     5    22 ar  
    13     5    24 ar  
    14     5    49 1   
    15     6    25 ar  
    16     6    27 ar  
    17     7    25 ar  
    18     7    26 ar  
    19     7    31 1   
    20     8    26 ar  
    21     8    27 ar  
    22     8    32 1   
    23     9    10 ar  
    24     9    14 ar  
    25     9    50 1   
    26    10    11 ar  
    27    10    36 1   
    28    11    12 ar  
    29    11    37 1   
    30    12    13 ar  
    31    12    38 1   
    32    13    14 ar  
    33    13    39 1   
    34    14    15 1   
    35    15    16 1   
    36    15    40 1   
    37    15    41 1   
    38    16    27 1   
    39    17    42 1   
    40    18    19 1   
    41    18    20 1   
    42    18    43 1   
    43    19    44 1   
    44    20    24 ar  
    45    21    22 ar  
    46    21    45 1   
    47    22    23 1   
    48    24    46 1   
    49    25    47 1   
    50    26    48 1   
    51    33    50 1   
    52    34    50 1   
    53    35    50 1   
@<TRIPOS>SUBSTRUCTURE
     1 5PZ         1 TEMP              0 ****  ****    0 ROOT
