@<TRIPOS>MOLECULE
5PZ
   50    53     1     0     0
SMALL
No Charge or Current Charge


@<TRIPOS>ATOM
      1 C10         -1.4340     0.3600     0.5430 cc         1 5PZ       0.615300
      2 N12         -0.5830    -0.5920    -0.0160 na         1 5PZ      -0.234600
      3 C13          0.8500    -0.4560    -0.3750 c3         1 5PZ       0.057600
      4 C17          3.9910    -1.2440     1.2170 ca         1 5PZ      -0.104000
      5 C21          5.2310     0.1910    -0.8600 ca         1 5PZ       0.113000
      6 C24         -1.3420    -1.7270    -0.2720 ca         1 5PZ      -0.023200
      7 C26         -1.9790    -3.9420    -0.9930 ca         1 5PZ      -0.107000
      8 C28         -3.6530    -2.4380    -0.0200 ca         1 5PZ      -0.105000
      9 C02         -6.1450     1.5450     0.5550 ca         1 5PZ      -0.070300
     10 C03         -7.0190     2.1120    -0.3950 ca         1 5PZ      -0.107000
     11 C04         -6.6650     2.1610    -1.7520 ca         1 5PZ      -0.101000
     12 C05         -5.4320     1.6420    -2.1700 ca         1 5PZ      -0.110000
     13 C06         -4.5530     1.0750    -1.2340 ca         1 5PZ      -0.090000
     14 C07         -4.8960     1.0180     0.1380 ca         1 5PZ      -0.117300
     15 C08         -3.9450     0.3980     1.1750 c3         1 5PZ       0.136900
     16 N09         -2.7040    -0.1970     0.6410 na         1 5PZ      -0.266600
     17 N11         -1.0850     1.5480     0.9190 n2         1 5PZ      -0.937100
     18 C14          1.7720    -0.0620     0.8080 c3         1 5PZ       0.223600
     19 O15          1.5750     1.3160     1.1530 oh         1 5PZ      -0.693000
     20 C16          3.2460    -0.2990     0.4820 ca         1 5PZ      -0.085300
     21 C18          5.3460    -1.4710     0.9160 ca         1 5PZ      -0.100000
     22 C19          5.9690    -0.7560    -0.1210 ca         1 5PZ       0.118000
     23 Cl1          7.6700    -1.0650    -0.4740 cl         1 5PZ      -0.176000
     24 C23          3.8770     0.4160    -0.5580 ca         1 5PZ      -0.067000
     25 C25         -0.9770    -2.9600    -0.8400 ca         1 5PZ      -0.113000
     26 C27         -3.3090    -3.6820    -0.5870 ca         1 5PZ      -0.110000
     27 C29         -2.6380    -1.4800     0.1280 ca         1 5PZ      -0.032200
     28 H1           1.2150    -1.4050    -0.7820 h1         1 5PZ       0.067700
     29 H2           0.9410     0.2910    -1.1730 h1         1 5PZ       0.067700
     30 H3           3.5220    -1.8050     2.0230 ha         1 5PZ       0.117000
     31 H4          -1.7270    -4.9060    -1.4300 ha         1 5PZ       0.118000
     32 H5          -4.6760    -2.2330     0.2870 ha         1 5PZ       0.126000
     33 H6          -5.8480     2.0430     2.6550 hc         1 5PZ       0.043367
     34 H7          -7.5450     1.9880     2.1750 hc         1 5PZ       0.043367
     35 H8          -6.6490     0.4820     2.3880 hc         1 5PZ       0.043367
     36 H9          -7.9780     2.5180    -0.0820 ha         1 5PZ       0.113000
     37 H10         -7.3470     2.6000    -2.4770 ha         1 5PZ       0.116000
     38 H11         -5.1560     1.6790    -3.2220 ha         1 5PZ       0.117000
     39 H12         -3.6050     0.6820    -1.5920 ha         1 5PZ       0.121000
     40 H13         -3.6720     1.1690     1.9060 h1         1 5PZ       0.064700
     41 H14         -4.4820    -0.3810     1.7300 h1         1 5PZ       0.064700
     42 H15         -1.9240     2.0300     1.2750 hn         1 5PZ       0.413400
     43 H17          1.5020    -0.6970     1.6630 h1         1 5PZ       0.046700
     44 H18          0.5830     1.4710     1.0980 ho         1 5PZ       0.506000
     45 H19          5.9140    -2.2010     1.4860 ha         1 5PZ       0.130000
     46 H20          3.3190     1.1530    -1.1310 ha         1 5PZ       0.150000
     47 H21          0.0410    -3.1670    -1.1590 ha         1 5PZ       0.123000
     48 H22         -4.0720    -4.4470    -0.7160 ha         1 5PZ       0.118000
     49 Cl2          5.9800     1.1090    -2.1690 cl         1 5PZ      -0.175000
     50 C01         -6.5690     1.5130     2.0220 c3         1 5PZ      -0.052800
@<TRIPOS>BOND
     1     1     2 1   
     2     1    16 1   
     3     1    17 2   
     4     2     3 1   
     5     2     6 1   
     6     3    18 1   
     7     3    28 1   
     8     3    29 1   
     9     4    20 ar  
    10     4    21 ar  
    11     4    30 1   
    12     5    22 ar  
    13     5    24 ar  
    14     5    49 1   
    15     6    25 ar  
    16     6    27 ar  
    17     7    25 ar  
    18     7    26 ar  
    19     7    31 1   
    20     8    26 ar  
    21     8    27 ar  
    22     8    32 1   
    23     9    10 ar  
    24     9    14 ar  
    25     9    50 1   
    26    10    11 ar  
    27    10    36 1   
    28    11    12 ar  
    29    11    37 1   
    30    12    13 ar  
    31    12    38 1   
    32    13    14 ar  
    33    13    39 1   
    34    14    15 1   
    35    15    16 1   
    36    15    40 1   
    37    15    41 1   
    38    16    27 1   
    39    17    42 1   
    40    18    19 1   
    41    18    20 1   
    42    18    43 1   
    43    19    44 1   
    44    20    24 ar  
    45    21    22 ar  
    46    21    45 1   
    47    22    23 1   
    48    24    46 1   
    49    25    47 1   
    50    26    48 1   
    51    33    50 1   
    52    34    50 1   
    53    35    50 1   
@<TRIPOS>SUBSTRUCTURE
     1 5PZ         1 TEMP              0 ****  ****    0 ROOT
