@<TRIPOS>MOLECULE
5Q0
   18    19     1     0     0
SMALL
abcg2


@<TRIPOS>ATOM
      1 C2          15.6560     0.7670    -7.9600 ca         1 5Q0      -0.119000
      2 C3          14.5110    -0.0190    -7.6930 ca         1 5Q0       0.296000
      3 C4          13.8430     0.1120    -6.4390 ca         1 5Q0      -0.107000
      4 C5          12.7020    -0.6850    -6.2050 ca         1 5Q0      -0.033000
      5 C6          12.2800    -1.5500    -7.1800 ca         1 5Q0      -0.184000
      6 C7          13.0040    -1.6130    -8.3900 ca         1 5Q0       0.362900
      7 C9          15.4670     1.7870    -5.7700 ca         1 5Q0      -0.216000
      8 C1          16.1140     1.6470    -7.0130 ca         1 5Q0      -0.061000
      9 N1          14.0700    -0.8880    -8.6480 nb         1 5Q0      -0.670000
     10 C8          14.3510     1.0350    -5.4840 ca         1 5Q0       0.158100
     11 O1          13.6790     1.1210    -4.3040 oh         1 5Q0      -0.538100
     12 H1          16.1490     0.6550    -8.9170 ha         1 5Q0       0.134000
     13 H2          12.1760    -0.6050    -5.2640 ha         1 5Q0       0.132000
     14 H3          11.4100    -2.1780    -7.0410 ha         1 5Q0       0.125000
     15 H4          12.6790    -2.2950    -9.1710 h4         1 5Q0       0.019100
     16 H5          15.8440     2.4880    -5.0340 ha         1 5Q0       0.115000
     17 H6          16.9890     2.2510    -7.2140 ha         1 5Q0       0.116000
     18 H7          14.0980     1.7770    -3.7300 ho         1 5Q0       0.467000
@<TRIPOS>BOND
     1     1     2 ar  
     2     1     8 ar  
     3     1    12 1   
     4     2     3 ar  
     5     2     9 ar  
     6     3     4 ar  
     7     3    10 ar  
     8     4     5 ar  
     9     4    13 1   
    10     5     6 ar  
    11     5    14 1   
    12     6     9 ar  
    13     6    15 1   
    14     7     8 ar  
    15     7    10 ar  
    16     7    16 1   
    17     8    17 1   
    18    10    11 1   
    19    11    18 1   
@<TRIPOS>SUBSTRUCTURE
     1 5Q0         1 TEMP              0 ****  ****    0 ROOT
