@<TRIPOS>MOLECULE
5Q0
   18    19     1     0     0
SMALL
No Charge or Current Charge


@<TRIPOS>ATOM
      1 C2          15.6410     0.7620    -7.9480 ca         1 5Q0      -0.119000
      2 C3          14.5040    -0.0260    -7.6980 ca         1 5Q0       0.296000
      3 C4          13.8390     0.1050    -6.4500 ca         1 5Q0      -0.107000
      4 C5          12.6980    -0.6880    -6.2030 ca         1 5Q0      -0.033000
      5 C6          12.2680    -1.5720    -7.2030 ca         1 5Q0      -0.184000
      6 C7          12.9810    -1.6400    -8.4070 ca         1 5Q0       0.362900
      7 C9          15.4610     1.7910    -5.7560 ca         1 5Q0      -0.216000
      8 C1          16.1210     1.6660    -6.9870 ca         1 5Q0      -0.061000
      9 N1          14.0750    -0.8860    -8.6540 nb         1 5Q0      -0.670000
     10 C8          14.3240     1.0160    -5.4850 ca         1 5Q0       0.158100
     11 O1          13.7030     1.1590    -4.2780 oh         1 5Q0      -0.538100
     12 H1          16.1570     0.6690    -8.9000 ha         1 5Q0       0.134000
     13 H2          12.1540    -0.6240    -5.2630 ha         1 5Q0       0.132000
     14 H3          11.3940    -2.2000    -7.0520 ha         1 5Q0       0.125000
     15 H4          12.6680    -2.3190    -9.2000 h4         1 5Q0       0.019100
     16 H5          15.8400     2.4940    -5.0170 ha         1 5Q0       0.115000
     17 H6          17.0030     2.2680    -7.1990 ha         1 5Q0       0.116000
     18 H7          14.1900     1.8330    -3.7580 ho         1 5Q0       0.467000
@<TRIPOS>BOND
     1     1     2 ar  
     2     1     8 ar  
     3     1    12 1   
     4     2     3 ar  
     5     2     9 ar  
     6     3     4 ar  
     7     3    10 ar  
     8     4     5 ar  
     9     4    13 1   
    10     5     6 ar  
    11     5    14 1   
    12     6     9 ar  
    13     6    15 1   
    14     7     8 ar  
    15     7    10 ar  
    16     7    16 1   
    17     8    17 1   
    18    10    11 1   
    19    11    18 1   
@<TRIPOS>SUBSTRUCTURE
     1 5Q0         1 TEMP              0 ****  ****    0 ROOT
