@<TRIPOS>MOLECULE
5Q1
   33    33     1     0     0
SMALL
bcc


@<TRIPOS>ATOM
      1 CAG          1.6830    -0.4350     1.3820 ca         1 5Q1      -0.164000
      2 CAI          2.8060     0.3480     1.1480 ca         1 5Q1      -0.113500
      3 CAS          3.4900     0.2780    -0.0620 ca         1 5Q1      -0.153600
      4 CAO          4.7220     1.1330    -0.3190 c          1 5Q1       0.926200
      5 OAE          5.0760     1.8990     0.5990 o          1 5Q1      -0.845800
      6 OAA          5.2750     0.9970    -1.4280 o          1 5Q1      -0.845800
      7 CAJ          3.0140    -0.6030    -1.0310 ca         1 5Q1      -0.113500
      8 CAH          1.8920    -1.3830    -0.7990 ca         1 5Q1      -0.164000
      9 CAR          1.2030    -1.3120     0.4120 ca         1 5Q1      -0.088300
     10 CAM         -0.0290    -2.1420     0.6360 c3         1 5Q1      -0.011100
     11 CAT         -1.2610    -1.6200    -0.1300 c3         1 5Q1      -0.188700
     12 CAP         -2.3710    -2.6900    -0.0280 c          1 5Q1       0.920600
     13 OAF         -2.3890    -3.5610    -0.9220 o          1 5Q1      -0.850300
     14 OAB         -3.1320    -2.6270     0.9580 o          1 5Q1      -0.850300
     15 CAL         -1.6950    -0.2530     0.3790 c3         1 5Q1      -0.039400
     16 CAK         -2.8450     0.3290    -0.4390 c3         1 5Q1      -0.148400
     17 CAQ         -3.2760     1.6830     0.0670 c          1 5Q1       0.670100
     18 OAC         -3.5590     1.9050     1.2330 o          1 5Q1      -0.589100
     19 NAN         -3.3560     2.6180    -0.9000 ns         1 5Q1      -0.471400
     20 OAD         -3.6030     3.9190    -0.5790 oh         1 5Q1      -0.402100
     21 H1           1.1690    -0.3630     2.3340 ha         1 5Q1       0.107000
     22 H2           3.1590     1.0220     1.9180 ha         1 5Q1       0.130500
     23 H4           3.5310    -0.6770    -1.9790 ha         1 5Q1       0.130500
     24 H5           1.5430    -2.0610    -1.5700 ha         1 5Q1       0.107000
     25 H6           0.1670    -3.1680     0.3150 hc         1 5Q1       0.040200
     26 H7          -0.2610    -2.1830     1.7040 hc         1 5Q1       0.040200
     27 H8          -0.9740    -1.5310    -1.1850 hc         1 5Q1       0.033700
     28 H10         -1.9930    -0.3320     1.4260 hc         1 5Q1       0.046200
     29 H11         -0.8490     0.4400     0.3430 hc         1 5Q1       0.046200
     30 H12         -2.5650     0.3750    -1.4950 hc         1 5Q1       0.063700
     31 H13         -3.7130    -0.3320    -0.3740 hc         1 5Q1       0.063700
     32 H14         -2.9610     2.4770    -1.8180 hn         1 5Q1       0.328500
     33 H15         -4.5490     4.0550    -0.7160 ho         1 5Q1       0.384000
@<TRIPOS>BOND
     1     1     2 ar  
     2     1     9 ar  
     3     1    21 1   
     4     2     3 ar  
     5     2    22 1   
     6     3     4 1   
     7     3     7 ar  
     8     4     5 1   
     9     4     6 1   
    10     7     8 ar  
    11     7    23 1   
    12     8     9 ar  
    13     8    24 1   
    14     9    10 1   
    15    10    11 1   
    16    10    25 1   
    17    10    26 1   
    18    11    12 1   
    19    11    15 1   
    20    11    27 1   
    21    12    13 1   
    22    12    14 1   
    23    15    16 1   
    24    15    28 1   
    25    15    29 1   
    26    16    17 1   
    27    16    30 1   
    28    16    31 1   
    29    17    18 2   
    30    17    19 1   
    31    19    20 1   
    32    19    32 1   
    33    20    33 1   
@<TRIPOS>SUBSTRUCTURE
     1 5Q1         1 TEMP              0 ****  ****    0 ROOT
