@<TRIPOS>MOLECULE
5Q1
   33    33     1     0     0
SMALL
No Charge or Current Charge


@<TRIPOS>ATOM
      1 CAG          1.6750    -0.4370     1.4040 ca         1 5Q1      -0.146000
      2 CAI          2.7800     0.4000     1.1680 ca         1 5Q1      -0.095500
      3 CAS          3.4330     0.3990    -0.0880 ca         1 5Q1      -0.153600
      4 CAO          4.6300     1.3040    -0.3460 c          1 5Q1       0.715600
      5 OAE          5.0220     2.0320     0.5550 o          1 5Q1      -0.740500
      6 OAA          5.1640     1.2720    -1.4460 o          1 5Q1      -0.740500
      7 CAJ          2.9440    -0.4650    -1.0960 ca         1 5Q1      -0.095500
      8 CAH          1.8390    -1.2990    -0.8560 ca         1 5Q1      -0.146000
      9 CAR          1.1950    -1.2900     0.3950 ca         1 5Q1      -0.088300
     10 CAM         -0.0050    -2.1980     0.6510 c3         1 5Q1      -0.011100
     11 CAT         -1.2950    -1.7410    -0.0840 c3         1 5Q1      -0.188700
     12 CAP         -2.4000    -2.8170     0.0520 c          1 5Q1       0.710000
     13 OAF         -2.7910    -3.3720    -0.9640 o          1 5Q1      -0.745000
     14 OAB         -2.8350    -3.0760     1.1650 o          1 5Q1      -0.745000
     15 CAL         -1.7820    -0.3400     0.3870 c3         1 5Q1      -0.039400
     16 CAK         -3.0140     0.1900    -0.3860 c3         1 5Q1      -0.148400
     17 CAQ         -3.3880     1.6090     0.0600 c          1 5Q1       0.603100
     18 OAC         -3.9460     1.8370     1.1260 o          1 5Q1      -0.589100
     19 NAN         -3.0910     2.6130    -0.8570 ns         1 5Q1      -0.404400
     20 OAD         -3.1640     4.0110    -0.4880 oh         1 5Q1      -0.441100
     21 H1           1.1890    -0.4160     2.3770 ha         1 5Q1       0.089000
     22 H2           3.1270     1.0510     1.9670 ha         1 5Q1       0.112500
     23 H4           3.4210    -0.4930    -2.0740 ha         1 5Q1       0.112500
     24 H5           1.4810    -1.9550    -1.6460 ha         1 5Q1       0.089000
     25 H6           0.2410    -3.2170     0.3260 hc         1 5Q1       0.040200
     26 H7          -0.2070    -2.2680     1.7270 hc         1 5Q1       0.040200
     27 H8          -1.0480    -1.6590    -1.1490 hc         1 5Q1       0.033700
     28 H10         -2.0130    -0.3740     1.4590 hc         1 5Q1       0.046200
     29 H11         -0.9650     0.3830     0.2680 hc         1 5Q1       0.046200
     30 H12         -2.7790     0.1860    -1.4570 hc         1 5Q1       0.063700
     31 H13         -3.8660    -0.4690    -0.1900 hc         1 5Q1       0.063700
     32 H14         -2.5090     2.3910    -1.6640 hn         1 5Q1       0.328500
     33 H15         -3.6910     4.4150    -1.2170 ho         1 5Q1       0.423000
@<TRIPOS>BOND
     1     1     2 ar  
     2     1     9 ar  
     3     1    21 1   
     4     2     3 ar  
     5     2    22 1   
     6     3     4 1   
     7     3     7 ar  
     8     4     5 1   
     9     4     6 1   
    10     7     8 ar  
    11     7    23 1   
    12     8     9 ar  
    13     8    24 1   
    14     9    10 1   
    15    10    11 1   
    16    10    25 1   
    17    10    26 1   
    18    11    12 1   
    19    11    15 1   
    20    11    27 1   
    21    12    13 1   
    22    12    14 1   
    23    15    16 1   
    24    15    28 1   
    25    15    29 1   
    26    16    17 1   
    27    16    30 1   
    28    16    31 1   
    29    17    18 2   
    30    17    19 1   
    31    19    20 1   
    32    19    32 1   
    33    20    33 1   
@<TRIPOS>SUBSTRUCTURE
     1 5Q1         1 TEMP              0 ****  ****    0 ROOT
