@<TRIPOS>MOLECULE
5Q2
   61    64     1     0     0
SMALL
No Charge or Current Charge


@<TRIPOS>ATOM
      1 C4          -7.4960     0.8010     0.8590 c6         1 5Q2       0.197300
      2 C6          -6.3750     2.7850    -0.1590 c6         1 5Q2       0.197300
      3 C11         -2.6670    -0.8680     0.0270 ca         1 5Q2      -0.040000
      4 C7          -7.7720     3.2890    -0.6510 c6         1 5Q2       0.158300
      5 C8          -5.1100     0.5910     0.0500 ca         1 5Q2       0.264000
      6 C9          -5.0910    -0.7770    -0.2800 ca         1 5Q2      -0.138500
      7 C10         -3.8840    -1.4990    -0.2890 ca         1 5Q2      -0.116500
      8 C12         -2.6810     0.5030     0.3640 ca         1 5Q2      -0.116500
      9 C13         -3.8910     1.2220     0.3710 ca         1 5Q2      -0.138500
     10 N2          -8.8960     2.8360     0.2240 n3         1 5Q2      -0.715600
     11 C3          -8.8700     1.3460     0.3460 c6         1 5Q2       0.158300
     12 C1         -10.2080     3.3500    -0.2210 c3         1 5Q2       0.153100
     13 N5          -6.3360     1.3010     0.0520 nh         1 5Q2      -0.786400
     14 C15         -0.1370    -1.3730     0.1160 c          1 5Q2       0.652300
     15 O16          0.2470    -0.2140     0.2420 o          1 5Q2      -0.677100
     16 C17          0.8130    -2.5370     0.0670 cc         1 5Q2      -0.444400
     17 C18          2.1850    -2.3380     0.1820 cd         1 5Q2       0.344000
     18 C19          3.0880    -3.4520     0.1370 cd         1 5Q2      -0.365000
     19 C20          2.6030    -4.7220    -0.0280 cc         1 5Q2       0.015600
     20 N21          1.2480    -4.9010    -0.1450 ns         1 5Q2      -0.366100
     21 C23          0.3010    -3.9210    -0.1110 c          1 5Q2       0.591200
     22 O24         -0.8680    -4.2440    -0.2280 o          1 5Q2      -0.609000
     23 N25          2.7280    -1.1020     0.3540 nu         1 5Q2      -0.802200
     24 C26          4.1270    -0.6850     0.1900 c3         1 5Q2       0.224800
     25 C27          4.2410     0.8510     0.1780 c3         1 5Q2      -0.048100
     26 C28          5.6820     1.3130     0.0080 ca         1 5Q2      -0.085300
     27 C29          6.2140     1.5200    -1.2810 ca         1 5Q2      -0.097000
     28 C30          7.5470     1.9410    -1.4370 ca         1 5Q2      -0.101500
     29 C31          8.3530     2.1550    -0.3070 ca         1 5Q2       0.122000
     30 C32          7.8300     1.9490     0.9790 ca         1 5Q2      -0.101500
     31 C33          6.4970     1.5280     1.1370 ca         1 5Q2      -0.097000
     32 Cl          10.0200     2.6800    -0.5040 cl         1 5Q2      -0.201000
     33 H1          -7.3690     1.1050     1.9090 h1         1 5Q2       0.042950
     34 H2          -7.5380    -0.2980     0.8470 h1         1 5Q2       0.042950
     35 H3          -5.6220     3.0830    -0.9040 h1         1 5Q2       0.042950
     36 H4          -6.1280     3.2990     0.7810 h1         1 5Q2       0.042950
     37 H5          -7.7480     4.3880    -0.7010 h1         1 5Q2       0.037950
     38 H6          -7.9280     2.9280    -1.6790 h1         1 5Q2       0.037950
     39 H7          -6.0150    -1.2830    -0.5430 ha         1 5Q2       0.111000
     40 H8          -3.8990    -2.5550    -0.5490 ha         1 5Q2       0.127000
     41 H9          -1.7720     1.0300     0.6330 ha         1 5Q2       0.127000
     42 H10         -3.8720     2.2730     0.6440 ha         1 5Q2       0.111000
     43 H12         -9.0810     0.8870    -0.6310 h1         1 5Q2       0.037950
     44 H13         -9.6580     1.0070     1.0340 h1         1 5Q2       0.037950
     45 H14        -10.4570     2.9760    -1.2230 h1         1 5Q2       0.030033
     46 H15        -11.0020     3.0350     0.4710 h1         1 5Q2       0.030033
     47 H16        -10.2040     4.4470    -0.2540 h1         1 5Q2       0.030033
     48 H17         -1.6750    -2.6550    -0.1210 hn         1 5Q2       0.200000
     49 H19          4.1580    -3.3110     0.2380 ha         1 5Q2       0.203000
     50 H20          3.1830    -5.6410    -0.0770 h4         1 5Q2       0.201000
     51 H21          2.0040    -0.3690     0.3600 hn         1 5Q2       0.553000
     52 H22          4.7350    -1.0830     1.0130 h1         1 5Q2       0.048700
     53 H23          4.5290    -1.0810    -0.7530 h1         1 5Q2       0.048700
     54 H24          3.6200     1.2510    -0.6330 hc         1 5Q2       0.065200
     55 H25          3.8260     1.2500     1.1110 hc         1 5Q2       0.065200
     56 H26          5.5970     1.3550    -2.1610 ha         1 5Q2       0.119000
     57 H27          7.9550     2.1000    -2.4320 ha         1 5Q2       0.131000
     58 H28          8.4560     2.1140     1.8520 ha         1 5Q2       0.131000
     59 H29          6.1000     1.3680     2.1370 ha         1 5Q2       0.119000
     60 H11          0.8780    -5.8360    -0.2670 hn         1 5Q2       0.335500
     61 N14         -1.4890    -1.6690     0.0010 ns         1 5Q2      -0.142000
@<TRIPOS>BOND
     1     1    11 1   
     2     1    13 1   
     3     1    33 1   
     4     1    34 1   
     5     2     4 1   
     6     2    13 1   
     7     2    35 1   
     8     2    36 1   
     9     3     7 ar  
    10     3     8 ar  
    11     3    61 1   
    12     4    10 1   
    13     4    37 1   
    14     4    38 1   
    15     5     6 ar  
    16     5     9 ar  
    17     5    13 1   
    18     6     7 ar  
    19     6    39 1   
    20     7    40 1   
    21     8     9 ar  
    22     8    41 1   
    23     9    42 1   
    24    10    11 1   
    25    10    12 1   
    26    11    43 1   
    27    11    44 1   
    28    12    45 1   
    29    12    46 1   
    30    12    47 1   
    31    14    15 2   
    32    14    16 1   
    33    14    61 1   
    34    16    17 2   
    35    16    21 1   
    36    17    18 1   
    37    17    23 1   
    38    18    19 2   
    39    18    49 1   
    40    19    20 1   
    41    19    50 1   
    42    20    21 1   
    43    20    60 1   
    44    21    22 2   
    45    23    24 1   
    46    23    51 1   
    47    24    25 1   
    48    24    52 1   
    49    24    53 1   
    50    25    26 1   
    51    25    54 1   
    52    25    55 1   
    53    26    27 ar  
    54    26    31 ar  
    55    27    28 ar  
    56    27    56 1   
    57    28    29 ar  
    58    28    57 1   
    59    29    30 ar  
    60    29    32 1   
    61    30    31 ar  
    62    30    58 1   
    63    31    59 1   
    64    48    61 1   
@<TRIPOS>SUBSTRUCTURE
     1 5Q2         1 TEMP              0 ****  ****    0 ROOT
