@<TRIPOS>MOLECULE
5Q2
   61    64     1     0     0
SMALL
abcg2


@<TRIPOS>ATOM
      1 C4          -7.4960     0.6630     0.5350 c6         1 5Q2       0.197300
      2 C6          -6.2520     2.6760     0.1280 c6         1 5Q2       0.197300
      3 C11         -2.6910    -0.9610     0.1470 ca         1 5Q2      -0.040000
      4 C7          -7.5210     3.3280    -0.3870 c6         1 5Q2       0.158300
      5 C8          -5.1140     0.5220     0.0430 ca         1 5Q2       0.264000
      6 C9          -5.0760    -0.8430    -0.2770 ca         1 5Q2      -0.138500
      7 C10         -3.8980    -1.5610    -0.2230 ca         1 5Q2      -0.116500
      8 C12         -2.7180     0.3910     0.4800 ca         1 5Q2      -0.116500
      9 C13         -3.9080     1.1080     0.4320 ca         1 5Q2      -0.138500
     10 N2          -8.6940     2.7670     0.2490 n3         1 5Q2      -0.715600
     11 C3          -8.7460     1.3400     0.0110 c6         1 5Q2       0.158300
     12 C1          -9.9040     3.4280    -0.1810 c3         1 5Q2       0.153100
     13 N5          -6.3060     1.2420    -0.0710 nh         1 5Q2      -0.786400
     14 C15         -0.2590    -1.4190     0.1390 c          1 5Q2       0.652300
     15 O16          0.0830    -0.2310     0.1180 o          1 5Q2      -0.677100
     16 C17          0.7320    -2.5150     0.1160 cc         1 5Q2      -0.444400
     17 C18          2.1220    -2.2120     0.0770 cd         1 5Q2       0.344000
     18 C19          3.0640    -3.2870     0.0570 cd         1 5Q2      -0.365000
     19 C20          2.6180    -4.5600     0.0740 cc         1 5Q2       0.015600
     20 N21          1.3030    -4.8410     0.1050 ns         1 5Q2      -0.366100
     21 C23          0.3080    -3.8880     0.1250 c          1 5Q2       0.591200
     22 O24         -0.8650    -4.2940     0.1480 o          1 5Q2      -0.609000
     23 N25          2.5800    -0.9640     0.0570 nu         1 5Q2      -0.802200
     24 C26          3.9740    -0.5860     0.0140 c3         1 5Q2       0.224800
     25 C27          4.0940     0.9340    -0.0390 c3         1 5Q2      -0.048100
     26 C28          5.5330     1.3560    -0.1140 ca         1 5Q2      -0.085300
     27 C29          6.1840     1.4450    -1.3420 ca         1 5Q2      -0.097000
     28 C30          7.5220     1.8020    -1.4210 ca         1 5Q2      -0.101500
     29 C31          8.2180     2.0710    -0.2530 ca         1 5Q2       0.122000
     30 C32          7.5980     1.9890     0.9830 ca         1 5Q2      -0.101500
     31 C33          6.2580     1.6300     1.0410 ca         1 5Q2      -0.097000
     32 CL           9.8910     2.5220    -0.3410 cl         1 5Q2      -0.201000
     33 H1          -7.4600     0.7610     1.6310 h1         1 5Q2       0.042950
     34 H2          -7.5590    -0.3990     0.3080 h1         1 5Q2       0.042950
     35 H3          -5.4110     3.0910    -0.4290 h1         1 5Q2       0.042950
     36 H4          -6.1060     2.9370     1.1880 h1         1 5Q2       0.042950
     37 H5          -7.4740     4.3990    -0.1760 h1         1 5Q2       0.037950
     38 H6          -7.5600     3.2160    -1.4850 h1         1 5Q2       0.037950
     39 H7          -5.9720    -1.3570    -0.5980 ha         1 5Q2       0.111000
     40 H8          -3.9150    -2.6110    -0.4920 ha         1 5Q2       0.127000
     41 H9          -1.8230     0.9010     0.7940 ha         1 5Q2       0.127000
     42 H10         -3.8690     2.1490     0.7230 ha         1 5Q2       0.111000
     43 H12         -8.8620     1.1090    -1.0620 h1         1 5Q2       0.037950
     44 H13         -9.6140     0.9210     0.5260 h1         1 5Q2       0.037950
     45 H14        -10.0890     3.3320    -1.2620 h1         1 5Q2       0.030033
     46 H15        -10.7650     3.0110     0.3440 h1         1 5Q2       0.030033
     47 H16         -9.8510     4.4930     0.0530 h1         1 5Q2       0.030033
     48 H17         -1.7100    -2.7930     0.1540 hn         1 5Q2       0.200000
     49 H19          4.1260    -3.1060     0.0340 ha         1 5Q2       0.203000
     50 H20          3.2860    -5.4080     0.0610 h4         1 5Q2       0.201000
     51 H21          1.8640    -0.2430     0.0750 hn         1 5Q2       0.553000
     52 H22          4.5060    -0.9640     0.8930 h1         1 5Q2       0.048700
     53 H23          4.4610    -1.0180    -0.8660 h1         1 5Q2       0.048700
     54 H24          3.5490     1.3080    -0.9100 hc         1 5Q2       0.065200
     55 H25          3.6240     1.3670     0.8480 hc         1 5Q2       0.065200
     56 H26          5.6420     1.2390    -2.2570 ha         1 5Q2       0.119000
     57 H27          8.0120     1.8740    -2.3830 ha         1 5Q2       0.131000
     58 H28          8.1450     2.2040     1.8910 ha         1 5Q2       0.131000
     59 H29          5.7730     1.5670     2.0080 ha         1 5Q2       0.119000
     60 H11          1.0050    -5.8060     0.1210 hn         1 5Q2       0.335500
     61 N14         -1.5600    -1.7830     0.1820 ns         1 5Q2      -0.142000
@<TRIPOS>BOND
     1     1    11 1   
     2     1    13 1   
     3     1    33 1   
     4     1    34 1   
     5     2     4 1   
     6     2    13 1   
     7     2    35 1   
     8     2    36 1   
     9     3     7 ar  
    10     3     8 ar  
    11     3    61 1   
    12     4    10 1   
    13     4    37 1   
    14     4    38 1   
    15     5     6 ar  
    16     5     9 ar  
    17     5    13 1   
    18     6     7 ar  
    19     6    39 1   
    20     7    40 1   
    21     8     9 ar  
    22     8    41 1   
    23     9    42 1   
    24    10    11 1   
    25    10    12 1   
    26    11    43 1   
    27    11    44 1   
    28    12    45 1   
    29    12    46 1   
    30    12    47 1   
    31    14    15 2   
    32    14    16 1   
    33    14    61 1   
    34    16    17 2   
    35    16    21 1   
    36    17    18 1   
    37    17    23 1   
    38    18    19 2   
    39    18    49 1   
    40    19    20 1   
    41    19    50 1   
    42    20    21 1   
    43    20    60 1   
    44    21    22 2   
    45    23    24 1   
    46    23    51 1   
    47    24    25 1   
    48    24    52 1   
    49    24    53 1   
    50    25    26 1   
    51    25    54 1   
    52    25    55 1   
    53    26    27 ar  
    54    26    31 ar  
    55    27    28 ar  
    56    27    56 1   
    57    28    29 ar  
    58    28    57 1   
    59    29    30 ar  
    60    29    32 1   
    61    30    31 ar  
    62    30    58 1   
    63    31    59 1   
    64    48    61 1   
@<TRIPOS>SUBSTRUCTURE
     1 5Q2         1 TEMP              0 ****  ****    0 ROOT
