@<TRIPOS>MOLECULE
5Q3
   55    58     1     0     0
SMALL
bcc


@<TRIPOS>ATOM
      1 C4          -5.7160    -1.3420     0.7520 c6         1 5Q3       0.198800
      2 C6          -6.3610     0.8270    -0.0560 c6         1 5Q3       0.198800
      3 C11         -1.2680     0.9550    -0.0920 ca         1 5Q3       0.045600
      4 C7          -7.7010     0.2460    -0.4680 c6         1 5Q3       0.157300
      5 C8          -4.0050     0.1980    -0.0490 ca         1 5Q3       0.131600
      6 C9          -2.9810    -0.7410    -0.2280 ca         1 5Q3      -0.158000
      7 C10         -1.6450    -0.3820    -0.2480 ca         1 5Q3      -0.131000
      8 C12         -2.2800     1.8960     0.0780 ca         1 5Q3      -0.131000
      9 C13         -3.6160     1.5320     0.1070 ca         1 5Q3      -0.158000
     10 N2          -8.0770    -0.8630     0.3830 n3         1 5Q3      -0.713600
     11 C3          -7.0610    -1.8920     0.3230 c6         1 5Q3       0.157300
     12 C1          -9.3830    -1.3780     0.0410 c3         1 5Q3       0.152100
     13 N5          -5.3420    -0.2020    -0.0730 nh         1 5Q3      -0.652000
     14 C15          1.1910     0.7540     0.0630 c          1 5Q3       0.711300
     15 O16          1.1990    -0.4610     0.2900 o          1 5Q3      -0.655100
     16 C17          2.4480     1.5440     0.0040 cc         1 5Q3      -0.410400
     17 C18          3.6990     0.8960     0.0550 cd         1 5Q3       0.347000
     18 C19          4.8910     1.6710     0.0810 cd         1 5Q3      -0.299000
     19 C20          4.8030     3.0170     0.0110 cc         1 5Q3       0.059600
     20 N21          3.6140     3.6310    -0.0950 ns         1 5Q3      -0.427100
     21 C23          2.4010     2.9820    -0.0990 c          1 5Q3       0.727700
     22 O24          1.3790     3.6750    -0.1950 o          1 5Q3      -0.673500
     23 N25          3.7650    -0.4550     0.1380 nu         1 5Q3      -0.745700
     24 C26          4.8220    -1.3120    -0.0960 ca         1 5Q3       0.741200
     25 C27          5.8990    -1.0280    -0.9390 ca         1 5Q3      -0.473600
     26 C28          6.8250    -2.0440    -1.0790 ca         1 5Q3       0.496200
     27 N29          6.7320    -3.2210    -0.4820 nb         1 5Q3      -0.786000
     28 C30          5.6460    -3.3980     0.2800 ca         1 5Q3       0.935900
     29 N31          4.6920    -2.4900     0.4960 nb         1 5Q3      -0.817000
     30 N32          5.5160    -4.5810     0.9050 nv         1 5Q3      -0.950500
     31 H1          -5.7620    -1.0540     1.8130 h1         1 5Q3       0.043450
     32 H2          -4.9730    -2.1320     0.6640 h1         1 5Q3       0.043450
     33 H3          -6.1010     1.6120    -0.7670 h1         1 5Q3       0.043450
     34 H4          -6.4530     1.2960     0.9360 h1         1 5Q3       0.043450
     35 H5          -8.4590     1.0300    -0.3960 h1         1 5Q3       0.038450
     36 H6          -7.6470    -0.0560    -1.5290 h1         1 5Q3       0.038450
     37 H7          -3.2230    -1.7840    -0.3820 ha         1 5Q3       0.130000
     38 H8          -0.9080    -1.1520    -0.4060 ha         1 5Q3       0.145500
     39 H9          -2.0250     2.9420     0.2060 ha         1 5Q3       0.145500
     40 H10         -4.3480     2.3120     0.2650 ha         1 5Q3       0.130000
     41 H12         -6.9710    -2.3180    -0.6920 h1         1 5Q3       0.038450
     42 H13         -7.3370    -2.7110     0.9920 h1         1 5Q3       0.038450
     43 H14         -9.4390    -1.7680    -0.9870 h1         1 5Q3       0.030700
     44 H15         -9.6540    -2.1890     0.7190 h1         1 5Q3       0.030700
     45 H16        -10.1330    -0.5930     0.1410 h1         1 5Q3       0.030700
     46 H17          0.1710     2.4430    -0.2320 hn         1 5Q3       0.365500
     47 H18          5.8580     1.2170     0.2160 ha         1 5Q3       0.167000
     48 H19          5.6700     3.6590     0.0460 h4         1 5Q3       0.156000
     49 H20          3.5840     4.6400    -0.1560 hn         1 5Q3       0.337500
     50 H21          2.8670    -0.8950     0.3550 hn         1 5Q3       0.515800
     51 H22          5.9950    -0.1100    -1.4950 ha         1 5Q3       0.158000
     52 H23          7.6850    -1.8980    -1.7230 h4         1 5Q3       0.021100
     53 H24          6.1150    -5.3430     0.6380 hn         1 5Q3       0.445800
     54 H25          4.6470    -4.8080     1.3540 hn         1 5Q3       0.445800
     55 N14          0.0470     1.4340    -0.1370 ns         1 5Q3      -0.461100
@<TRIPOS>BOND
     1     1    11 1   
     2     1    13 1   
     3     1    31 1   
     4     1    32 1   
     5     2     4 1   
     6     2    13 1   
     7     2    33 1   
     8     2    34 1   
     9     3     7 ar  
    10     3     8 ar  
    11     3    55 1   
    12     4    10 1   
    13     4    35 1   
    14     4    36 1   
    15     5     6 ar  
    16     5     9 ar  
    17     5    13 1   
    18     6     7 ar  
    19     6    37 1   
    20     7    38 1   
    21     8     9 ar  
    22     8    39 1   
    23     9    40 1   
    24    10    11 1   
    25    10    12 1   
    26    11    41 1   
    27    11    42 1   
    28    12    43 1   
    29    12    44 1   
    30    12    45 1   
    31    14    15 2   
    32    14    16 1   
    33    14    55 1   
    34    16    17 2   
    35    16    21 1   
    36    17    18 1   
    37    17    23 1   
    38    18    19 2   
    39    18    47 1   
    40    19    20 1   
    41    19    48 1   
    42    20    21 1   
    43    20    49 1   
    44    21    22 2   
    45    23    24 1   
    46    23    50 1   
    47    24    25 ar  
    48    24    29 ar  
    49    25    26 ar  
    50    25    51 1   
    51    26    27 ar  
    52    26    52 1   
    53    27    28 ar  
    54    28    29 ar  
    55    28    30 1   
    56    30    53 1   
    57    30    54 1   
    58    46    55 1   
@<TRIPOS>SUBSTRUCTURE
     1 5Q3         1 TEMP              0 ****  ****    0 ROOT
