@<TRIPOS>MOLECULE
5Q3
   55    58     1     0     0
SMALL
No Charge or Current Charge


@<TRIPOS>ATOM
      1 C4          -5.9060    -1.1080     1.0890 c6         1 5Q3       0.198800
      2 C6          -6.4450     0.8240    -0.3980 c6         1 5Q3       0.198800
      3 C11         -1.2610     0.9460     0.1010 ca         1 5Q3      -0.047000
      4 C7          -7.7590     0.0920    -0.8280 c6         1 5Q3       0.157300
      5 C8          -4.0190     0.2460     0.0910 ca         1 5Q3       0.270000
      6 C9          -3.0240    -0.7470     0.0250 ca         1 5Q3      -0.140000
      7 C10         -1.6590    -0.4070     0.0280 ca         1 5Q3      -0.113000
      8 C12         -2.2550     1.9400     0.1570 ca         1 5Q3      -0.113000
      9 C13         -3.6180     1.5960     0.1540 ca         1 5Q3      -0.140000
     10 N2          -8.2900    -0.8210     0.2290 n3         1 5Q3      -0.713600
     11 C3          -7.2320    -1.8000     0.6280 c6         1 5Q3       0.157300
     12 C1          -9.5540    -1.4780    -0.1650 c3         1 5Q3       0.152100
     13 N5          -5.3870    -0.1230     0.0860 nh         1 5Q3      -0.790400
     14 C15          1.3040     0.6960     0.2220 c          1 5Q3       0.644300
     15 O16          1.3330    -0.5170     0.4070 o          1 5Q3      -0.655100
     16 C17          2.5540     1.5250     0.1360 cc         1 5Q3      -0.410400
     17 C18          3.8070     0.9210     0.1690 cd         1 5Q3       0.347000
     18 C19          4.9970     1.7210     0.1740 cd         1 5Q3      -0.349000
     19 C20          4.9090     3.0860     0.0810 cc         1 5Q3       0.009600
     20 N21          3.6660     3.6620    -0.0090 ns         1 5Q3      -0.360100
     21 C23          2.4720     3.0050     0.0200 c          1 5Q3       0.585200
     22 O24          1.4480     3.6640    -0.0420 o          1 5Q3      -0.598000
     23 N25          3.9670    -0.4280     0.2490 nu         1 5Q3      -0.800900
     24 C26          4.9470    -1.3280    -0.1260 ca         1 5Q3       0.412900
     25 C27          5.9300    -1.0410    -1.0830 ca         1 5Q3      -0.325000
     26 C28          6.8450    -2.0580    -1.3980 ca         1 5Q3       0.167900
     27 N29          6.7720    -3.2680    -0.8120 nb         1 5Q3      -0.260000
     28 C30          5.7780    -3.4330     0.0720 ca         1 5Q3       0.409900
     29 N31          4.8540    -2.5390     0.4430 nb         1 5Q3      -0.291000
     30 N32          5.6920    -4.6520     0.6540 nv         1 5Q3      -1.060900
     31 H1          -6.0940    -0.5930     2.0430 h1         1 5Q3       0.043450
     32 H2          -5.1630    -1.8920     1.2900 h1         1 5Q3       0.043450
     33 H3          -6.0750     1.3990    -1.2600 h1         1 5Q3       0.043450
     34 H4          -6.6890     1.5440     0.3970 h1         1 5Q3       0.043450
     35 H5          -8.5110     0.8510    -1.0870 h1         1 5Q3       0.038450
     36 H6          -7.5530    -0.4780    -1.7470 h1         1 5Q3       0.038450
     37 H7          -3.3080    -1.7920    -0.0460 ha         1 5Q3       0.112000
     38 H8          -0.9310    -1.2090    -0.0410 ha         1 5Q3       0.127500
     39 H9          -1.9720     2.9900     0.2090 ha         1 5Q3       0.127500
     40 H10         -4.3590     2.3870     0.2120 ha         1 5Q3       0.112000
     41 H12         -6.9990    -2.4650    -0.2170 h1         1 5Q3       0.038450
     42 H13         -7.5940    -2.4390     1.4460 h1         1 5Q3       0.038450
     43 H14         -9.4070    -2.1160    -1.0470 h1         1 5Q3       0.030700
     44 H15         -9.9370    -2.1030     0.6520 h1         1 5Q3       0.030700
     45 H16        -10.3210    -0.7290    -0.4060 h1         1 5Q3       0.030700
     46 H17          0.2060     2.3730    -0.0120 hn         1 5Q3       0.199000
     47 H18          5.9730     1.2600     0.2680 ha         1 5Q3       0.217000
     48 H19          5.7350     3.7930     0.0740 h4         1 5Q3       0.206000
     49 H20          3.5890     4.6690    -0.0840 hn         1 5Q3       0.337500
     50 H21          3.0790    -0.8840     0.4880 hn         1 5Q3       0.571000
     51 H22          5.9770    -0.0820    -1.5890 ha         1 5Q3       0.140000
     52 H23          7.6340    -1.9080    -2.1330 h4         1 5Q3       0.021100
     53 H24          6.2140    -5.4210     0.2400 hn         1 5Q3       0.501000
     54 H25          4.8350    -4.8960     1.1460 hn         1 5Q3       0.501000
     55 N14          0.0970     1.3740     0.1030 ns         1 5Q3      -0.135000
@<TRIPOS>BOND
     1     1    11 1   
     2     1    13 1   
     3     1    31 1   
     4     1    32 1   
     5     2     4 1   
     6     2    13 1   
     7     2    33 1   
     8     2    34 1   
     9     3     7 ar  
    10     3     8 ar  
    11     3    55 1   
    12     4    10 1   
    13     4    35 1   
    14     4    36 1   
    15     5     6 ar  
    16     5     9 ar  
    17     5    13 1   
    18     6     7 ar  
    19     6    37 1   
    20     7    38 1   
    21     8     9 ar  
    22     8    39 1   
    23     9    40 1   
    24    10    11 1   
    25    10    12 1   
    26    11    41 1   
    27    11    42 1   
    28    12    43 1   
    29    12    44 1   
    30    12    45 1   
    31    14    15 2   
    32    14    16 1   
    33    14    55 1   
    34    16    17 2   
    35    16    21 1   
    36    17    18 1   
    37    17    23 1   
    38    18    19 2   
    39    18    47 1   
    40    19    20 1   
    41    19    48 1   
    42    20    21 1   
    43    20    49 1   
    44    21    22 2   
    45    23    24 1   
    46    23    50 1   
    47    24    25 ar  
    48    24    29 ar  
    49    25    26 ar  
    50    25    51 1   
    51    26    27 ar  
    52    26    52 1   
    53    27    28 ar  
    54    28    29 ar  
    55    28    30 1   
    56    30    53 1   
    57    30    54 1   
    58    46    55 1   
@<TRIPOS>SUBSTRUCTURE
     1 5Q3         1 TEMP              0 ****  ****    0 ROOT
