@<TRIPOS>MOLECULE
5Q4
   59    62     1     0     0
SMALL
No Charge or Current Charge


@<TRIPOS>ATOM
      1 C4          -6.0700    -0.9140     1.0570 c6         1 5Q4       0.199300
      2 C6          -6.5240     0.9980    -0.4840 c6         1 5Q4       0.199300
      3 C11         -1.3550     1.0230     0.1540 ca         1 5Q4      -0.039000
      4 C7          -7.8410     0.2850    -0.9370 c6         1 5Q4       0.158300
      5 C8          -4.1260     0.3790     0.0860 ca         1 5Q4       0.265000
      6 C9          -3.1500    -0.6350     0.0700 ca         1 5Q4      -0.139500
      7 C10         -1.7790    -0.3230     0.1050 ca         1 5Q4      -0.117500
      8 C12         -2.3290     2.0380     0.1760 ca         1 5Q4      -0.117500
      9 C13         -3.6990     1.7220     0.1390 ca         1 5Q4      -0.139500
     10 N2          -8.4220    -0.5940     0.1230 n3         1 5Q4      -0.715600
     11 C3          -7.3970    -1.5860     0.5720 c6         1 5Q4       0.158300
     12 C1          -9.6880    -1.2310    -0.2940 c3         1 5Q4       0.153100
     13 N5          -5.5010     0.0390     0.0480 nh         1 5Q4      -0.790400
     14 C15          1.2070     0.7360     0.0430 c          1 5Q4       0.651300
     15 O16          1.2180    -0.4610    -0.2290 o          1 5Q4      -0.668100
     16 C17          2.4690     1.5360     0.2030 cc         1 5Q4      -0.440400
     17 C18          3.7120     0.9140     0.1540 cd         1 5Q4       0.346000
     18 C19          4.9140     1.6940     0.2070 cd         1 5Q4      -0.353000
     19 C20          4.8460     3.0510     0.3780 cc         1 5Q4       0.007600
     20 N21          3.6120     3.6410     0.4890 ns         1 5Q4      -0.366100
     21 C23          2.4080     3.0060     0.4060 c          1 5Q4       0.590200
     22 O24          1.3940     3.6770     0.4930 o          1 5Q4      -0.610000
     23 N25          3.8470    -0.4310     0.0040 nu         1 5Q4      -0.810000
     24 C26          4.8270    -1.3910     0.3160 ca         1 5Q4       0.231000
     25 C27          5.8060    -1.1520     1.3030 ca         1 5Q4      -0.088000
     26 C28          6.7620    -2.1340     1.6160 ca         1 5Q4      -0.139000
     27 C29          6.7420    -3.3720     0.9570 ca         1 5Q4      -0.072000
     28 C30          5.7560    -3.6390    -0.0070 ca         1 5Q4      -0.190000
     29 C31          4.7890    -2.6570    -0.3260 ca         1 5Q4       0.138100
     30 O32          3.7900    -2.8950    -1.2600 os         1 5Q4      -0.329100
     31 C33          3.6670    -4.1460    -1.9600 c3         1 5Q4       0.146900
     32 H1          -6.2730    -0.3750     1.9940 h1         1 5Q4       0.043200
     33 H2          -5.3500    -1.7090     1.2940 h1         1 5Q4       0.043200
     34 H3          -6.1170     1.5460    -1.3470 h1         1 5Q4       0.043200
     35 H4          -6.7740     1.7390     0.2890 h1         1 5Q4       0.043200
     36 H5          -8.5690     1.0550    -1.2330 h1         1 5Q4       0.037700
     37 H6          -7.6220    -0.3080    -1.8370 h1         1 5Q4       0.037700
     38 H7          -3.4550    -1.6760     0.0190 ha         1 5Q4       0.111000
     39 H8          -1.0670    -1.1420     0.1000 ha         1 5Q4       0.127500
     40 H9          -2.0260     3.0820     0.2210 ha         1 5Q4       0.127500
     41 H10         -4.4240     2.5290     0.1650 ha         1 5Q4       0.111000
     42 H12         -7.1550    -2.2740    -0.2520 h1         1 5Q4       0.037700
     43 H13         -7.7960    -2.2000     1.3920 h1         1 5Q4       0.037700
     44 H14         -9.5300    -1.8910    -1.1590 h1         1 5Q4       0.030033
     45 H15        -10.1080    -1.8310     0.5240 h1         1 5Q4       0.030033
     46 H16        -10.4310    -0.4720    -0.5720 h1         1 5Q4       0.030033
     47 H17          0.1370     2.4100     0.3880 hn         1 5Q4       0.201000
     48 H18          5.8840     1.2240     0.0940 ha         1 5Q4       0.211000
     49 H19          5.6830     3.7440     0.4340 h4         1 5Q4       0.201000
     50 H22          3.5490     4.6430     0.6230 hn         1 5Q4       0.334500
     51 H20          2.9580    -0.8460    -0.3110 hn         1 5Q4       0.567000
     52 H21          5.8160    -0.2160     1.8520 ha         1 5Q4       0.126000
     53 H23          7.5140    -1.9370     2.3770 ha         1 5Q4       0.121000
     54 H24          7.4830    -4.1300     1.2020 ha         1 5Q4       0.116000
     55 H25          5.7560    -4.6120    -0.4900 ha         1 5Q4       0.122000
     56 H26          4.5680    -4.3520    -2.5510 h1         1 5Q4       0.044367
     57 H27          3.5090    -4.9730    -1.2560 h1         1 5Q4       0.044367
     58 H28          2.8110    -4.1150    -2.6440 h1         1 5Q4       0.044367
     59 N14          0.0110     1.4240     0.1990 ns         1 5Q4      -0.141000
@<TRIPOS>BOND
     1     1    11 1   
     2     1    13 1   
     3     1    32 1   
     4     1    33 1   
     5     2     4 1   
     6     2    13 1   
     7     2    34 1   
     8     2    35 1   
     9     3     7 ar  
    10     3     8 ar  
    11     3    59 1   
    12     4    10 1   
    13     4    36 1   
    14     4    37 1   
    15     5     6 ar  
    16     5     9 ar  
    17     5    13 1   
    18     6     7 ar  
    19     6    38 1   
    20     7    39 1   
    21     8     9 ar  
    22     8    40 1   
    23     9    41 1   
    24    10    11 1   
    25    10    12 1   
    26    11    42 1   
    27    11    43 1   
    28    12    44 1   
    29    12    45 1   
    30    12    46 1   
    31    14    15 2   
    32    14    16 1   
    33    14    59 1   
    34    16    17 2   
    35    16    21 1   
    36    17    18 1   
    37    17    23 1   
    38    18    19 2   
    39    18    48 1   
    40    19    20 1   
    41    19    49 1   
    42    20    21 1   
    43    20    50 1   
    44    21    22 2   
    45    23    24 1   
    46    23    51 1   
    47    24    25 ar  
    48    24    29 ar  
    49    25    26 ar  
    50    25    52 1   
    51    26    27 ar  
    52    26    53 1   
    53    27    28 ar  
    54    27    54 1   
    55    28    29 ar  
    56    28    55 1   
    57    29    30 1   
    58    30    31 1   
    59    31    56 1   
    60    31    57 1   
    61    31    58 1   
    62    47    59 1   
@<TRIPOS>SUBSTRUCTURE
     1 5Q4         1 TEMP              0 ****  ****    0 ROOT
