@<TRIPOS>MOLECULE
5Q4
   59    62     1     0     0
SMALL
bcc


@<TRIPOS>ATOM
      1 C4          -6.0210    -1.1520     0.6880 c6         1 5Q4       0.199300
      2 C6          -6.5210     1.0930    -0.0020 c6         1 5Q4       0.199300
      3 C11         -1.4280     0.9380     0.0370 ca         1 5Q4       0.053600
      4 C7          -7.8770     0.6170    -0.4910 c6         1 5Q4       0.158300
      5 C8          -4.2040     0.3310     0.0160 ca         1 5Q4       0.126600
      6 C9          -3.2290    -0.6530    -0.1950 ca         1 5Q4      -0.157500
      7 C10         -1.8750    -0.3670    -0.1830 ca         1 5Q4      -0.135500
      8 C12         -2.3900     1.9220     0.2500 ca         1 5Q4      -0.135500
      9 C13         -3.7450     1.6310     0.2480 ca         1 5Q4      -0.157500
     10 N2          -8.3390    -0.5210     0.2750 n3         1 5Q4      -0.715600
     11 C3          -7.3790    -1.6000     0.1870 c6         1 5Q4       0.158300
     12 C1          -9.6590    -0.9410    -0.1340 c3         1 5Q4       0.153100
     13 N5          -5.5610     0.0110    -0.0570 nh         1 5Q4      -0.652000
     14 C15          1.0270     0.6130     0.1260 c          1 5Q4       0.718300
     15 O16          0.9840    -0.6180     0.2530 o          1 5Q4      -0.668100
     16 C17          2.3110     1.3470     0.0790 cc         1 5Q4      -0.440400
     17 C18          3.5340     0.6430     0.2170 cd         1 5Q4       0.346000
     18 C19          4.7640     1.3590     0.1090 cd         1 5Q4      -0.303000
     19 C20          4.7360     2.6930    -0.0880 cc         1 5Q4       0.057600
     20 N21          3.5740     3.3640    -0.1770 ns         1 5Q4      -0.433100
     21 C23          2.3330     2.7730    -0.1080 c          1 5Q4       0.732700
     22 O24          1.3430     3.5150    -0.2090 o          1 5Q4      -0.685500
     23 N25          3.5550    -0.6790     0.4290 nu         1 5Q4      -0.616400
     24 C26          4.6900    -1.4700     0.6760 ca         1 5Q4       0.092600
     25 C27          5.5350    -1.2150     1.7460 ca         1 5Q4      -0.106000
     26 C28          6.6410    -2.0200     1.9860 ca         1 5Q4      -0.157000
     27 C29          6.8820    -3.1060     1.1590 ca         1 5Q4      -0.090000
     28 C30          6.0320    -3.3910     0.0970 ca         1 5Q4      -0.208000
     29 C31          4.9330    -2.5760    -0.1550 ca         1 5Q4       0.138100
     30 O32          4.0560    -2.7640    -1.1540 os         1 5Q4      -0.305900
     31 C33          4.2130    -3.8970    -1.9870 c3         1 5Q4       0.123700
     32 H1          -6.0870    -0.9240     1.7620 h1         1 5Q4       0.043200
     33 H2          -5.3200    -1.9760     0.5750 h1         1 5Q4       0.043200
     34 H3          -6.1960     1.9060    -0.6520 h1         1 5Q4       0.043200
     35 H4          -6.6210     1.5030     1.0160 h1         1 5Q4       0.043200
     36 H5          -8.5940     1.4350    -0.3900 h1         1 5Q4       0.037700
     37 H6          -7.8030     0.3810    -1.5670 h1         1 5Q4       0.037700
     38 H7          -3.5270    -1.6720    -0.4050 ha         1 5Q4       0.129000
     39 H8          -1.1790    -1.1690    -0.3690 ha         1 5Q4       0.145500
     40 H9          -2.0800     2.9440     0.4350 ha         1 5Q4       0.145500
     41 H10         -4.4350     2.4400     0.4400 ha         1 5Q4       0.129000
     42 H12         -7.2790    -1.9750    -0.8480 h1         1 5Q4       0.037700
     43 H13         -7.7230    -2.4380     0.7990 h1         1 5Q4       0.037700
     44 H14         -9.7050    -1.2700    -1.1840 h1         1 5Q4       0.030033
     45 H15         -9.9960    -1.7710     0.4890 h1         1 5Q4       0.030033
     46 H16        -10.3680    -0.1210    -0.0110 h1         1 5Q4       0.030033
     47 H17          0.0790     2.3600    -0.0530 hn         1 5Q4       0.367500
     48 H18          5.7140     0.8530     0.1620 ha         1 5Q4       0.161000
     49 H19          5.6350     3.2840    -0.1880 h4         1 5Q4       0.151000
     50 H22          3.5910     4.3660    -0.3060 hn         1 5Q4       0.334500
     51 H20          2.6350    -1.1200     0.3860 hn         1 5Q4       0.511800
     52 H21          5.3230    -0.3800     2.4020 ha         1 5Q4       0.144000
     53 H23          7.2960    -1.8060     2.8190 ha         1 5Q4       0.139000
     54 H24          7.7350    -3.7470     1.3370 ha         1 5Q4       0.134000
     55 H25          6.2430    -4.2460    -0.5310 ha         1 5Q4       0.140000
     56 H26          5.1510    -3.8660    -2.5450 h1         1 5Q4       0.044367
     57 H27          4.1710    -4.8300    -1.4180 h1         1 5Q4       0.044367
     58 H28          3.3850    -3.8770    -2.6900 h1         1 5Q4       0.044367
     59 N14         -0.0930     1.3550     0.0160 ns         1 5Q4      -0.467100
@<TRIPOS>BOND
     1     1    11 1   
     2     1    13 1   
     3     1    32 1   
     4     1    33 1   
     5     2     4 1   
     6     2    13 1   
     7     2    34 1   
     8     2    35 1   
     9     3     7 ar  
    10     3     8 ar  
    11     3    59 1   
    12     4    10 1   
    13     4    36 1   
    14     4    37 1   
    15     5     6 ar  
    16     5     9 ar  
    17     5    13 1   
    18     6     7 ar  
    19     6    38 1   
    20     7    39 1   
    21     8     9 ar  
    22     8    40 1   
    23     9    41 1   
    24    10    11 1   
    25    10    12 1   
    26    11    42 1   
    27    11    43 1   
    28    12    44 1   
    29    12    45 1   
    30    12    46 1   
    31    14    15 2   
    32    14    16 1   
    33    14    59 1   
    34    16    17 2   
    35    16    21 1   
    36    17    18 1   
    37    17    23 1   
    38    18    19 2   
    39    18    48 1   
    40    19    20 1   
    41    19    49 1   
    42    20    21 1   
    43    20    50 1   
    44    21    22 2   
    45    23    24 1   
    46    23    51 1   
    47    24    25 ar  
    48    24    29 ar  
    49    25    26 ar  
    50    25    52 1   
    51    26    27 ar  
    52    26    53 1   
    53    27    28 ar  
    54    27    54 1   
    55    28    29 ar  
    56    28    55 1   
    57    29    30 1   
    58    30    31 1   
    59    31    56 1   
    60    31    57 1   
    61    31    58 1   
    62    47    59 1   
@<TRIPOS>SUBSTRUCTURE
     1 5Q4         1 TEMP              0 ****  ****    0 ROOT
