@<TRIPOS>MOLECULE
5Q5
   21    21     1     0     0
SMALL
No Charge or Current Charge


@<TRIPOS>ATOM
      1 N1          -3.0680     1.1220     0.3770 nt         1 5Q5      -0.559000
      2 C4           1.9480    -1.7830     0.4190 ca         1 5Q5      -0.103000
      3 C5           0.6540    -1.2400     0.4850 ca         1 5Q5      -0.077000
      4 C6           0.4320     0.1250     0.2040 ca         1 5Q5       0.051600
      5 C7          -2.1290     0.1970     0.1460 cs         1 5Q5       0.486400
      6 S           -2.5630    -1.3320    -0.3540 s          1 5Q5      -0.658400
      7 N           -0.8650     0.7000     0.2830 ns         1 5Q5      -0.376100
      8 C1           1.5340     0.9530    -0.1200 ca         1 5Q5      -0.081300
      9 C            1.3470     2.4400    -0.4140 c3         1 5Q5      -0.047800
     10 C3           3.0350    -0.9650     0.0800 ca         1 5Q5      -0.103000
     11 C2           2.8290     0.3980    -0.1840 ca         1 5Q5      -0.103000
     12 H1          -4.0410     0.8730     0.2750 hn         1 5Q5       0.326000
     13 H2          -2.8250     2.0590     0.6620 hn         1 5Q5       0.326000
     14 H4          -0.1660    -1.8880     0.7770 ha         1 5Q5       0.132000
     15 H5          -0.8410     1.6870     0.5010 hn         1 5Q5       0.307500
     16 H6           0.9940     2.9760     0.4740 hc         1 5Q5       0.043033
     17 H7           2.2840     2.9130    -0.7310 hc         1 5Q5       0.043033
     18 H8           0.6170     2.5950    -1.2180 hc         1 5Q5       0.043033
     19 H9           4.0380    -1.3840     0.0300 ha         1 5Q5       0.116000
     20 H10          3.6810     1.0250    -0.4390 ha         1 5Q5       0.114000
     21 H3           2.1070    -2.8370     0.6370 ha         1 5Q5       0.120000
@<TRIPOS>BOND
     1     1     5 1   
     2     1    12 1   
     3     1    13 1   
     4     2     3 ar  
     5     2    10 ar  
     6     2    21 1   
     7     3     4 ar  
     8     3    14 1   
     9     4     7 1   
    10     4     8 ar  
    11     5     6 2   
    12     5     7 1   
    13     7    15 1   
    14     8     9 1   
    15     8    11 ar  
    16     9    16 1   
    17     9    17 1   
    18     9    18 1   
    19    10    11 ar  
    20    10    19 1   
    21    11    20 1   
@<TRIPOS>SUBSTRUCTURE
     1 5Q5         1 TEMP              0 ****  ****    0 ROOT
