@<TRIPOS>MOLECULE
5Q5
   21    21     1     0     0
SMALL
bcc


@<TRIPOS>ATOM
      1 N1          -3.0350     1.0730     0.3810 nt         1 5Q5      -0.626000
      2 C4           1.9260    -1.7520     0.5510 ca         1 5Q5      -0.121000
      3 C5           0.6750    -1.1800     0.7200 ca         1 5Q5      -0.095000
      4 C6           0.4600     0.1460     0.3630 ca         1 5Q5       0.051600
      5 C7          -1.9630     0.3750     0.0030 cs         1 5Q5       0.620400
      6 S           -2.0870    -0.8690    -1.1240 s          1 5Q5      -0.658400
      7 N           -0.8020     0.7430     0.5780 ns         1 5Q5      -0.443100
      8 C1           1.4950     0.9280    -0.1540 ca         1 5Q5      -0.081300
      9 C            1.2640     2.3580    -0.5430 c3         1 5Q5      -0.047800
     10 C3           2.9670    -0.9890     0.0390 ca         1 5Q5      -0.121000
     11 C2           2.7490     0.3370    -0.3030 ca         1 5Q5      -0.121000
     12 H1          -3.9230     0.8800    -0.0460 hn         1 5Q5       0.326000
     13 H2          -2.9870     1.8400     1.0330 hn         1 5Q5       0.326000
     14 H4          -0.1400    -1.7590     1.1320 ha         1 5Q5       0.150000
     15 H5          -0.8110     1.5680     1.1620 hn         1 5Q5       0.307500
     16 H6           0.9610     2.9710     0.3090 hc         1 5Q5       0.043033
     17 H7           2.1690     2.8000    -0.9550 hc         1 5Q5       0.043033
     18 H8           0.4770     2.4460    -1.2940 hc         1 5Q5       0.043033
     19 H9           3.9500    -1.4240    -0.0900 ha         1 5Q5       0.134000
     20 H10          3.5650     0.9270    -0.7010 ha         1 5Q5       0.132000
     21 H3           2.0890    -2.7850     0.8300 ha         1 5Q5       0.138000
@<TRIPOS>BOND
     1     1     5 1   
     2     1    12 1   
     3     1    13 1   
     4     2     3 ar  
     5     2    10 ar  
     6     2    21 1   
     7     3     4 ar  
     8     3    14 1   
     9     4     7 1   
    10     4     8 ar  
    11     5     6 2   
    12     5     7 1   
    13     7    15 1   
    14     8     9 1   
    15     8    11 ar  
    16     9    16 1   
    17     9    17 1   
    18     9    18 1   
    19    10    11 ar  
    20    10    19 1   
    21    11    20 1   
@<TRIPOS>SUBSTRUCTURE
     1 5Q5         1 TEMP              0 ****  ****    0 ROOT
