@<TRIPOS>MOLECULE
5Q6
   36    38     1     0     0
SMALL
bcc


@<TRIPOS>ATOM
      1 C1           3.5940     2.0350    -1.1640 ca         1 5Q6      -0.102000
      2 C2           2.4270     1.5260    -1.7330 ca         1 5Q6      -0.154000
      3 C3           1.8510     0.3830    -1.2290 ca         1 5Q6      -0.056000
      4 C4           2.4380    -0.2870    -0.1430 ca         1 5Q6      -0.235600
      5 C5           1.8760    -1.5190     0.4150 c          1 5Q6       0.518200
      6 C6           0.4990    -1.9750     0.0480 ca         1 5Q6       0.351800
      7 C7           0.2650    -3.3280    -0.1650 ca         1 5Q6      -0.193300
      8 C8          -1.0320    -3.7230    -0.4490 ca         1 5Q6      -0.100000
      9 C9          -2.0340    -2.7690    -0.4750 ca         1 5Q6      -0.211300
     10 C10         -1.7050    -1.4390    -0.2220 cp         1 5Q6       0.464800
     11 C17          3.6350     0.2090     0.4040 ca         1 5Q6       0.127100
     12 C16         -2.6100     0.8110    -0.8370 ca         1 5Q6       0.070900
     13 C15         -3.5850     1.8040    -0.8060 ca         1 5Q6       0.108100
     14 O2          -3.4430     2.9780    -1.4450 oh         1 5Q6      -0.486100
     15 C14         -4.7500     1.5610    -0.0880 ca         1 5Q6      -0.135000
     16 C13         -4.9240     0.3510     0.5660 ca         1 5Q6      -0.107000
     17 C12         -3.9430    -0.6270     0.5170 ca         1 5Q6      -0.130000
     18 C11         -2.7600    -0.4030    -0.1860 cp         1 5Q6      -0.141500
     19 N           -0.4560    -1.0560     0.0190 nb         1 5Q6      -0.632000
     20 O1           2.5110    -2.2140     1.2020 o          1 5Q6      -0.567100
     21 O3           4.2940    -0.3700     1.4120 oh         1 5Q6      -0.529100
     22 C            4.2000     1.3910    -0.1040 ca         1 5Q6       0.087100
     23 O            5.3340     1.8970     0.4190 oh         1 5Q6      -0.497100
     24 H1           4.0450     2.9390    -1.5550 ha         1 5Q6       0.149000
     25 H2           1.9760     2.0370    -2.5720 ha         1 5Q6       0.139000
     26 H3           0.9510    -0.0040    -1.6790 ha         1 5Q6       0.149000
     27 H4           1.0720    -4.0460    -0.1250 ha         1 5Q6       0.159000
     28 H5          -1.2590    -4.7620    -0.6460 ha         1 5Q6       0.145000
     29 H6          -3.0550    -3.0470    -0.7000 ha         1 5Q6       0.149000
     30 H7          -2.6060     3.0190    -1.9210 ho         1 5Q6       0.440000
     31 H8          -5.5150     2.3260    -0.0520 ha         1 5Q6       0.153000
     32 H9          -5.8340     0.1730     1.1230 ha         1 5Q6       0.141000
     33 H10         -4.0810    -1.5620     1.0430 ha         1 5Q6       0.140000
     34 H11          3.8570    -1.2270     1.6090 ho         1 5Q6       0.480000
     35 H12          5.6550     1.3380     1.1370 ho         1 5Q6       0.445000
     36 F           -1.5080     1.0590    -1.5670 f          1 5Q6      -0.140900
@<TRIPOS>BOND
     1     1     2 ar  
     2     1    22 ar  
     3     1    24 1   
     4     2     3 ar  
     5     2    25 1   
     6     3     4 ar  
     7     3    26 1   
     8     4     5 1   
     9     4    11 ar  
    10     5     6 1   
    11     5    20 2   
    12     6     7 ar  
    13     6    19 ar  
    14     7     8 ar  
    15     7    27 1   
    16     8     9 ar  
    17     8    28 1   
    18     9    10 ar  
    19     9    29 1   
    20    10    18 1   
    21    10    19 ar  
    22    11    21 1   
    23    11    22 ar  
    24    12    13 ar  
    25    12    18 ar  
    26    12    36 1   
    27    13    14 1   
    28    13    15 ar  
    29    14    30 1   
    30    15    16 ar  
    31    15    31 1   
    32    16    17 ar  
    33    16    32 1   
    34    17    18 ar  
    35    17    33 1   
    36    21    34 1   
    37    22    23 1   
    38    23    35 1   
@<TRIPOS>SUBSTRUCTURE
     1 5Q6         1 TEMP              0 ****  ****    0 ROOT
