@<TRIPOS>MOLECULE
5Q6
   36    38     1     0     0
SMALL
No Charge or Current Charge


@<TRIPOS>ATOM
      1 C1           3.4530     2.2230    -1.0390 ca         1 5Q6      -0.084000
      2 C2           2.3790     1.6230    -1.7160 ca         1 5Q6      -0.136000
      3 C3           1.9230     0.3490    -1.3350 ca         1 5Q6      -0.038000
      4 C4           2.5270    -0.3460    -0.2590 ca         1 5Q6      -0.235600
      5 C5           2.0290    -1.7200     0.1610 c          1 5Q6       0.518200
      6 C6           0.5580    -2.1120    -0.0320 ca         1 5Q6       0.286500
      7 C7           0.2210    -3.4810    -0.1250 ca         1 5Q6      -0.110000
      8 C8          -1.1230    -3.8600    -0.2650 ca         1 5Q6      -0.082000
      9 C9          -2.0960    -2.8510    -0.3000 ca         1 5Q6      -0.128000
     10 C10         -1.7080    -1.4940    -0.1980 cp         1 5Q6       0.399500
     11 C17          3.6280     0.2560     0.3950 ca         1 5Q6       0.127100
     12 C16         -2.5350     0.8320    -0.8950 ca         1 5Q6       0.106000
     13 C15         -3.5150     1.8490    -0.8630 ca         1 5Q6       0.108100
     14 O2          -3.3290     3.0210    -1.5470 oh         1 5Q6      -0.525100
     15 C14         -4.6970     1.6620    -0.1330 ca         1 5Q6      -0.117000
     16 C13         -4.9100     0.4620     0.5630 ca         1 5Q6      -0.089000
     17 C12         -3.9370    -0.5520     0.5310 ca         1 5Q6      -0.112000
     18 C11         -2.7250    -0.3920    -0.1920 cp         1 5Q6      -0.141500
     19 N           -0.4090    -1.1490    -0.0540 nb         1 5Q6      -0.632000
     20 O1           2.8290    -2.5080     0.6690 o          1 5Q6      -0.567100
     21 O3           4.2740    -0.3990     1.4070 oh         1 5Q6      -0.568100
     22 C            4.0790     1.5380     0.0120 ca         1 5Q6       0.087100
     23 O            5.1370     2.1060     0.6650 oh         1 5Q6      -0.536100
     24 H1           3.8040     3.2080    -1.3350 ha         1 5Q6       0.131000
     25 H2           1.9000     2.1440    -2.5420 ha         1 5Q6       0.121000
     26 H3           1.1030    -0.0960    -1.8950 ha         1 5Q6       0.131000
     27 H4           0.9980    -4.2400    -0.0900 ha         1 5Q6       0.141000
     28 H5          -1.4030    -4.9090    -0.3430 ha         1 5Q6       0.127000
     29 H6          -3.1450    -3.1100    -0.4120 ha         1 5Q6       0.131000
     30 H7          -2.4570     2.9750    -1.9970 ho         1 5Q6       0.479000
     31 H8          -5.4510     2.4460    -0.1080 ha         1 5Q6       0.135000
     32 H9          -5.8280     0.3170     1.1290 ha         1 5Q6       0.123000
     33 H10         -4.1200    -1.4690     1.0880 ha         1 5Q6       0.122000
     34 H11          3.9330    -1.3310     1.3960 ho         1 5Q6       0.519000
     35 H12          5.4160     1.4580     1.3510 ho         1 5Q6       0.484000
     36 F           -1.4240     1.0330    -1.6450 f          1 5Q6      -0.176000
@<TRIPOS>BOND
     1     1     2 ar  
     2     1    22 ar  
     3     1    24 1   
     4     2     3 ar  
     5     2    25 1   
     6     3     4 ar  
     7     3    26 1   
     8     4     5 1   
     9     4    11 ar  
    10     5     6 1   
    11     5    20 2   
    12     6     7 ar  
    13     6    19 ar  
    14     7     8 ar  
    15     7    27 1   
    16     8     9 ar  
    17     8    28 1   
    18     9    10 ar  
    19     9    29 1   
    20    10    18 1   
    21    10    19 ar  
    22    11    21 1   
    23    11    22 ar  
    24    12    13 ar  
    25    12    18 ar  
    26    12    36 1   
    27    13    14 1   
    28    13    15 ar  
    29    14    30 1   
    30    15    16 ar  
    31    15    31 1   
    32    16    17 ar  
    33    16    32 1   
    34    17    18 ar  
    35    17    33 1   
    36    21    34 1   
    37    22    23 1   
    38    23    35 1   
@<TRIPOS>SUBSTRUCTURE
     1 5Q6         1 TEMP              0 ****  ****    0 ROOT
