@<TRIPOS>MOLECULE
5Q7
   23    23     1     0     0
SMALL
bcc


@<TRIPOS>ATOM
      1 N1           3.7570     1.4060    -1.0030 n1         1 5Q7      -0.377800
      2 C4          -0.3960     0.1550     0.5510 cc         1 5Q7       0.474700
      3 C5           1.6220     0.3420    -0.0780 cd         1 5Q7       0.191000
      4 C6           2.7880     0.9320    -0.5850 ch         1 5Q7       0.178800
      5 C7           1.4560    -0.9560     0.3470 cc         1 5Q7       0.481300
      6 N            0.4160     1.0150     0.0750 nd         1 5Q7      -0.605000
      7 N2           2.2720    -2.0040     0.4830 nv         1 5Q7      -0.929500
      8 O            0.1840    -1.0730     0.7400 os         1 5Q7      -0.382800
      9 C3          -1.8380     0.3060     0.8680 c3         1 5Q7      -0.092700
     10 C1          -2.7100     0.4640    -0.3870 c3         1 5Q7      -0.059700
     11 C2          -2.6070    -0.7500    -1.3020 c3         1 5Q7      -0.088600
     12 C           -4.1550     0.7270     0.0200 c3         1 5Q7      -0.088600
     13 H1           1.8680    -2.9240     0.5550 hn         1 5Q7       0.441800
     14 H2           3.1640    -1.9690     0.0150 hn         1 5Q7       0.441800
     15 H3          -2.1750    -0.5540     1.4520 hc         1 5Q7       0.068700
     16 H4          -1.9560     1.1860     1.5040 hc         1 5Q7       0.068700
     17 H5          -2.3420     1.3400    -0.9300 hc         1 5Q7       0.064700
     18 H6          -1.5870    -0.9170    -1.6530 hc         1 5Q7       0.035867
     19 H7          -2.9380    -1.6570    -0.7910 hc         1 5Q7       0.035867
     20 H8          -3.2350    -0.6210    -2.1850 hc         1 5Q7       0.035867
     21 H9          -4.2360     1.6060     0.6610 hc         1 5Q7       0.035867
     22 H10         -4.7810     0.8960    -0.8570 hc         1 5Q7       0.035867
     23 H11         -4.5710    -0.1230     0.5660 hc         1 5Q7       0.035867
@<TRIPOS>BOND
     1     1     4 3   
     2     2     6 2   
     3     2     8 1   
     4     2     9 1   
     5     3     4 1   
     6     3     5 2   
     7     3     6 1   
     8     5     7 1   
     9     5     8 1   
    10     7    13 1   
    11     7    14 1   
    12     9    10 1   
    13     9    15 1   
    14     9    16 1   
    15    10    11 1   
    16    10    12 1   
    17    10    17 1   
    18    11    18 1   
    19    11    19 1   
    20    11    20 1   
    21    12    21 1   
    22    12    22 1   
    23    12    23 1   
@<TRIPOS>SUBSTRUCTURE
     1 5Q7         1 TEMP              0 ****  ****    0 ROOT
