@<TRIPOS>MOLECULE
5Q7
   23    23     1     0     0
SMALL
No Charge or Current Charge


@<TRIPOS>ATOM
      1 N1           3.8930     1.4940    -0.8000 n1         1 5Q7      -0.467000
      2 C4          -0.3610     0.1380     0.5460 cc         1 5Q7       0.430300
      3 C5           1.6740     0.4050    -0.0100 cd         1 5Q7       0.191000
      4 C6           2.9000     0.9960    -0.4330 ch         1 5Q7       0.268000
      5 C7           1.4690    -0.9190     0.3150 cc         1 5Q7       0.436900
      6 N            0.4760     1.0850     0.1450 nd         1 5Q7      -0.605000
      7 N2           2.2760    -2.0240     0.3450 nv         1 5Q7      -1.039900
      8 O            0.1840    -1.1060     0.6720 os         1 5Q7      -0.294000
      9 C3          -1.8200     0.3220     0.8590 c3         1 5Q7      -0.092700
     10 C1          -2.7310     0.4250    -0.3930 c3         1 5Q7      -0.059700
     11 C2          -2.6780    -0.8540    -1.2630 c3         1 5Q7      -0.088600
     12 C           -4.1860     0.7690    -0.0010 c3         1 5Q7      -0.088600
     13 H1           1.8360    -2.9370     0.4320 hn         1 5Q7       0.497000
     14 H2           3.1800    -1.9950    -0.1250 hn         1 5Q7       0.497000
     15 H3          -2.1640    -0.5060     1.4910 hc         1 5Q7       0.068700
     16 H4          -1.9330     1.2320     1.4610 hc         1 5Q7       0.068700
     17 H5          -2.3580     1.2550    -1.0080 hc         1 5Q7       0.064700
     18 H6          -1.6600    -1.0440    -1.6230 hc         1 5Q7       0.035867
     19 H7          -3.0110    -1.7290    -0.6920 hc         1 5Q7       0.035867
     20 H8          -3.3280    -0.7510    -2.1410 hc         1 5Q7       0.035867
     21 H9          -4.2240     1.7070     0.5660 hc         1 5Q7       0.035867
     22 H10         -4.8110     0.8900    -0.8940 hc         1 5Q7       0.035867
     23 H11         -4.6220    -0.0250     0.6180 hc         1 5Q7       0.035867
@<TRIPOS>BOND
     1     1     4 3   
     2     2     6 2   
     3     2     8 1   
     4     2     9 1   
     5     3     4 1   
     6     3     5 2   
     7     3     6 1   
     8     5     7 1   
     9     5     8 1   
    10     7    13 1   
    11     7    14 1   
    12     9    10 1   
    13     9    15 1   
    14     9    16 1   
    15    10    11 1   
    16    10    12 1   
    17    10    17 1   
    18    11    18 1   
    19    11    19 1   
    20    11    20 1   
    21    12    21 1   
    22    12    22 1   
    23    12    23 1   
@<TRIPOS>SUBSTRUCTURE
     1 5Q7         1 TEMP              0 ****  ****    0 ROOT
