@<TRIPOS>MOLECULE
5Q8
   24    25     1     0     0
SMALL
No Charge or Current Charge


@<TRIPOS>ATOM
      1 N1           4.5370     1.8980    -0.3010 n1         1 5Q8      -0.468000
      2 C4          -4.1040     0.3300    -1.1480 ca         1 5Q8      -0.103000
      3 C5          -3.6280    -0.9740    -0.9290 ca         1 5Q8      -0.110500
      4 C6          -2.5540    -1.1930    -0.0490 ca         1 5Q8      -0.096000
      5 C7           0.5550    -0.2200     0.8890 cc         1 5Q8       0.425300
      6 C8           2.4370     0.4400     0.1510 cd         1 5Q8       0.185000
      7 C10          2.1890    -0.8280    -0.3280 cc         1 5Q8       0.445900
      8 C9           3.5890     1.2380    -0.1110 ch         1 5Q8       0.269000
      9 N            1.3670     0.8270     0.9440 nd         1 5Q8      -0.603000
     10 N2           2.8820    -1.6870    -1.1380 nv         1 5Q8      -1.045900
     11 O            1.0010    -1.2640     0.1320 os         1 5Q8      -0.288000
     12 C1          -1.9500    -0.1090     0.6180 ca         1 5Q8      -0.092300
     13 C3          -3.5040     1.4150    -0.4870 ca         1 5Q8      -0.110500
     14 C2          -2.4300     1.1960     0.3930 ca         1 5Q8      -0.096000
     15 H1          -4.9360     0.4990    -1.8290 ha         1 5Q8       0.114000
     16 H2          -4.0910    -1.8150    -1.4420 ha         1 5Q8       0.114500
     17 H3          -2.1900    -2.2060     0.1110 ha         1 5Q8       0.116000
     18 H4           2.5750    -2.6560    -1.1800 hn         1 5Q8       0.501000
     19 H5           3.8700    -1.5140    -1.3180 hn         1 5Q8       0.501000
     20 H6          -0.8560    -1.3370     2.0230 hc         1 5Q8       0.078200
     21 H7          -0.8260     0.3660     2.4010 hc         1 5Q8       0.078200
     22 H8          -3.8710     2.4250    -0.6570 ha         1 5Q8       0.114500
     23 H9          -1.9690     2.0430     0.8980 ha         1 5Q8       0.116000
     24 C           -0.7800    -0.3430     1.5670 c3         1 5Q8      -0.046400
@<TRIPOS>BOND
     1     1     8 3   
     2     2     3 ar  
     3     2    13 ar  
     4     2    15 1   
     5     3     4 ar  
     6     3    16 1   
     7     4    12 ar  
     8     4    17 1   
     9     5     9 2   
    10     5    11 1   
    11     5    24 1   
    12     6     7 2   
    13     6     8 1   
    14     6     9 1   
    15     7    10 1   
    16     7    11 1   
    17    10    18 1   
    18    10    19 1   
    19    12    14 ar  
    20    12    24 1   
    21    13    14 ar  
    22    13    22 1   
    23    14    23 1   
    24    20    24 1   
    25    21    24 1   
@<TRIPOS>SUBSTRUCTURE
     1 5Q8         1 TEMP              0 ****  ****    0 ROOT
