@<TRIPOS>MOLECULE
5Q8
   24    25     1     0     0
SMALL
abcg2


@<TRIPOS>ATOM
      1 N1           4.6670     1.6890     0.2100 n1         1 5Q8      -0.468000
      2 C4          -3.9850     0.1980    -1.1990 ca         1 5Q8      -0.103000
      3 C5          -3.7130    -1.0660    -0.6960 ca         1 5Q8      -0.110500
      4 C6          -2.6850    -1.2450     0.2220 ca         1 5Q8      -0.096000
      5 C7           0.5310    -0.1730     0.9980 cc         1 5Q8       0.425300
      6 C8           2.4630     0.3980     0.3390 cd         1 5Q8       0.185000
      7 C10          2.0720    -0.6680    -0.4400 cc         1 5Q8       0.445900
      8 C9           3.6690     1.1100     0.2740 ch         1 5Q8       0.269000
      9 N            1.4440     0.6820     1.2410 nd         1 5Q8      -0.603000
     10 N2           2.6150    -1.3120    -1.4730 nv         1 5Q8      -1.045900
     11 O            0.8560    -1.0270    -0.0220 os         1 5Q8      -0.288000
     12 C1          -1.9230    -0.1640     0.6480 ca         1 5Q8      -0.092300
     13 C3          -3.2240     1.2840    -0.7800 ca         1 5Q8      -0.110500
     14 C2          -2.2000     1.1030     0.1380 ca         1 5Q8      -0.096000
     15 H1          -4.7860     0.3380    -1.9130 ha         1 5Q8       0.114000
     16 H2          -4.3020    -1.9160    -1.0150 ha         1 5Q8       0.114500
     17 H3          -2.4780    -2.2350     0.6120 ha         1 5Q8       0.116000
     18 H4           2.2540    -2.2160    -1.7320 hn         1 5Q8       0.501000
     19 H5           3.5910    -1.1630    -1.6700 hn         1 5Q8       0.501000
     20 H6          -0.8530    -1.3420     2.0920 hc         1 5Q8       0.078200
     21 H7          -0.8630     0.3780     2.4450 hc         1 5Q8       0.078200
     22 H8          -3.4300     2.2730    -1.1670 ha         1 5Q8       0.114500
     23 H9          -1.6110     1.9530     0.4610 ha         1 5Q8       0.116000
     24 C           -0.7950    -0.3500     1.6360 c3         1 5Q8      -0.046400
@<TRIPOS>BOND
     1     1     8 3   
     2     2     3 ar  
     3     2    13 ar  
     4     2    15 1   
     5     3     4 ar  
     6     3    16 1   
     7     4    12 ar  
     8     4    17 1   
     9     5     9 2   
    10     5    11 1   
    11     5    24 1   
    12     6     7 2   
    13     6     8 1   
    14     6     9 1   
    15     7    10 1   
    16     7    11 1   
    17    10    18 1   
    18    10    19 1   
    19    12    14 ar  
    20    12    24 1   
    21    13    14 ar  
    22    13    22 1   
    23    14    23 1   
    24    20    24 1   
    25    21    24 1   
@<TRIPOS>SUBSTRUCTURE
     1 5Q8         1 TEMP              0 ****  ****    0 ROOT
