@<TRIPOS>MOLECULE
5Q9
   25    25     1     0     0
SMALL
No Charge or Current Charge


@<TRIPOS>ATOM
      1 C4          -0.7220     0.2720     0.3310 ca         1 5Q9      -0.084300
      2 C5          -2.0470    -0.2250     0.4120 ca         1 5Q9       0.133500
      3 C6          -3.1050     0.4610    -0.2090 ca         1 5Q9      -0.107500
      4 C7          -2.8630     1.6480    -0.9160 ca         1 5Q9      -0.090000
      5 C8          -1.5570     2.1510    -1.0030 ca         1 5Q9      -0.107500
      6 O            3.2720    -0.4300     1.0970 o          1 5Q9      -0.599100
      7 C1           2.7620    -1.0480     0.1710 c          1 5Q9       0.608100
      8 C            3.6520    -1.7040    -0.8890 c3         1 5Q9      -0.175100
      9 N            1.3560    -1.1510     0.0420 n          1 5Q9      -0.406800
     10 C2           0.7390    -2.0370    -0.9740 c3         1 5Q9       0.086300
     11 C3           0.4500    -0.4590     0.9960 c3         1 5Q9       0.135300
     12 C9          -0.4930     1.4720    -0.3850 ca         1 5Q9       0.133500
     13 Cl           1.1260     2.1600    -0.5320 cl         1 5Q9      -0.187500
     14 Cl1         -2.4320    -1.7150     1.2770 cl         1 5Q9      -0.187500
     15 H1          -4.1160     0.0680    -0.1410 ha         1 5Q9       0.134500
     16 H2          -3.6860     2.1760    -1.3960 ha         1 5Q9       0.124000
     17 H3          -1.3650     3.0710    -1.5500 ha         1 5Q9       0.134500
     18 H4           3.4730    -2.7850    -0.8900 hc         1 5Q9       0.060700
     19 H5           3.3160    -1.4010    -1.8870 hc         1 5Q9       0.060700
     20 H6           4.7140    -1.4850    -0.7370 hc         1 5Q9       0.060700
     21 H7           1.1840    -3.0380    -0.9220 h1         1 5Q9       0.040033
     22 H8          -0.3400    -2.1360    -0.8020 h1         1 5Q9       0.040033
     23 H9           0.8980    -1.6180    -1.9760 h1         1 5Q9       0.040033
     24 H10          1.0120     0.2810     1.5810 h1         1 5Q9       0.078200
     25 H11          0.0920    -1.1970     1.7230 h1         1 5Q9       0.078200
@<TRIPOS>BOND
     1     1     2 ar  
     2     1    11 1   
     3     1    12 ar  
     4     2     3 ar  
     5     2    14 1   
     6     3     4 ar  
     7     3    15 1   
     8     4     5 ar  
     9     4    16 1   
    10     5    12 ar  
    11     5    17 1   
    12     6     7 2   
    13     7     8 1   
    14     7     9 1   
    15     8    18 1   
    16     8    19 1   
    17     8    20 1   
    18     9    10 1   
    19     9    11 1   
    20    10    21 1   
    21    10    22 1   
    22    10    23 1   
    23    11    24 1   
    24    11    25 1   
    25    12    13 1   
@<TRIPOS>SUBSTRUCTURE
     1 5Q9         1 TEMP              0 ****  ****    0 ROOT
