@<TRIPOS>MOLECULE
5Q9
   25    25     1     0     0
SMALL
abcg2


@<TRIPOS>ATOM
      1 C4          -0.6880     0.2240     0.3310 ca         1 5Q9      -0.084300
      2 C5          -2.0000    -0.2510     0.3530 ca         1 5Q9       0.133500
      3 C6          -3.0550     0.4410    -0.2230 ca         1 5Q9      -0.107500
      4 C7          -2.8100     1.6470    -0.8540 ca         1 5Q9      -0.090000
      5 C8          -1.5230     2.1560    -0.9080 ca         1 5Q9      -0.107500
      6 O            3.1840    -0.1750     0.8990 o          1 5Q9      -0.599100
      7 C1           2.6850    -0.8970     0.0470 c          1 5Q9       0.608100
      8 C            3.5500    -1.5990    -0.9730 c3         1 5Q9      -0.175100
      9 N            1.3450    -1.1000    -0.0350 n          1 5Q9      -0.406800
     10 C2           0.7440    -2.1160    -0.8740 c3         1 5Q9       0.086300
     11 C3           0.4670    -0.5140     0.9620 c3         1 5Q9       0.135300
     12 C9          -0.4910     1.4430    -0.3210 ca         1 5Q9       0.133500
     13 CL           1.1010     2.1200    -0.3980 cl         1 5Q9      -0.187500
     14 CL1         -2.3720    -1.7680     1.1100 cl         1 5Q9      -0.187500
     15 H1          -4.0580     0.0380    -0.1800 ha         1 5Q9       0.134500
     16 H2          -3.6260     2.1940    -1.3070 ha         1 5Q9       0.124000
     17 H3          -1.3230     3.0980    -1.4000 ha         1 5Q9       0.134500
     18 H4           3.4750    -2.6840    -0.8850 hc         1 5Q9       0.060700
     19 H5           3.2720    -1.3370    -1.9940 hc         1 5Q9       0.060700
     20 H6           4.5860    -1.3140    -0.8140 hc         1 5Q9       0.060700
     21 H7           0.5770    -3.0440    -0.3220 h1         1 5Q9       0.040033
     22 H8          -0.2180    -1.7710    -1.2510 h1         1 5Q9       0.040033
     23 H9           1.3580    -2.3360    -1.7400 h1         1 5Q9       0.040033
     24 H10          1.0460     0.1710     1.5760 h1         1 5Q9       0.078200
     25 H11          0.0930    -1.2950     1.6250 h1         1 5Q9       0.078200
@<TRIPOS>BOND
     1     1     2 ar  
     2     1    11 1   
     3     1    12 ar  
     4     2     3 ar  
     5     2    14 1   
     6     3     4 ar  
     7     3    15 1   
     8     4     5 ar  
     9     4    16 1   
    10     5    12 ar  
    11     5    17 1   
    12     6     7 2   
    13     7     8 1   
    14     7     9 1   
    15     8    18 1   
    16     8    19 1   
    17     8    20 1   
    18     9    10 1   
    19     9    11 1   
    20    10    21 1   
    21    10    22 1   
    22    10    23 1   
    23    11    24 1   
    24    11    25 1   
    25    12    13 1   
@<TRIPOS>SUBSTRUCTURE
     1 5Q9         1 TEMP              0 ****  ****    0 ROOT
