@<TRIPOS>MOLECULE
5QA
   23    23     1     0     0
SMALL
abcg2


@<TRIPOS>ATOM
      1 C4          -3.4330    -0.2340     0.9070 ca         1 5QA      -0.088000
      2 C5          -3.0930     1.0550     0.5370 ca         1 5QA      -0.106500
      3 C6          -1.8610     1.2870    -0.0580 ca         1 5QA       0.133500
      4 C7           2.5710    -0.2680    -0.0810 c          1 5QA       0.603100
      5 C8           3.4580    -0.2290     1.1510 c3         1 5QA       0.079600
      6 O1           2.8470    -0.9260    -1.0670 o          1 5QA      -0.562100
      7 O            4.6970    -0.7920     0.8320 oh         1 5QA      -0.621000
      8 N            1.4510     0.4690     0.0440 ns         1 5QA      -0.515900
      9 C1          -0.9450     0.2650    -0.3080 ca         1 5QA      -0.098300
     10 CL          -1.4780     2.9250    -0.4820 cl         1 5QA      -0.185500
     11 C3          -2.5500    -1.2800     0.6910 ca         1 5QA      -0.106500
     12 C2          -1.3270    -1.0160     0.0970 ca         1 5QA       0.133500
     13 CL1         -0.2430    -2.3430    -0.1510 cl         1 5QA      -0.185500
     14 H1          -4.3900    -0.4270     1.3720 ha         1 5QA       0.125000
     15 H2          -3.7760     1.8740     0.7110 ha         1 5QA       0.135500
     16 H3           3.5430     0.8080     1.5010 h1         1 5QA       0.031700
     17 H4           2.9380    -0.7820     1.9450 h1         1 5QA       0.031700
     18 H5           5.2040    -0.8630     1.6460 ho         1 5QA       0.444000
     19 H6           1.3330     1.0350     0.8690 hn         1 5QA       0.312500
     20 H7           0.4020     1.4630    -1.4710 h1         1 5QA       0.077700
     21 H8           0.6010    -0.2590    -1.6890 h1         1 5QA       0.077700
     22 H9          -2.8090    -2.2880     0.9800 ha         1 5QA       0.135500
     23 C            0.3980     0.5090    -0.9450 c3         1 5QA       0.148300
@<TRIPOS>BOND
     1     1     2 ar  
     2     1    11 ar  
     3     1    14 1   
     4     2     3 ar  
     5     2    15 1   
     6     3     9 ar  
     7     3    10 1   
     8     4     5 1   
     9     4     6 2   
    10     4     8 1   
    11     5     7 1   
    12     5    16 1   
    13     5    17 1   
    14     7    18 1   
    15     8    19 1   
    16     8    23 1   
    17     9    12 ar  
    18     9    23 1   
    19    11    12 ar  
    20    11    22 1   
    21    12    13 1   
    22    20    23 1   
    23    21    23 1   
@<TRIPOS>SUBSTRUCTURE
     1 5QA         1 TEMP              0 ****  ****    0 ROOT
