@<TRIPOS>MOLECULE
5QA
   23    23     1     0     0
SMALL
No Charge or Current Charge


@<TRIPOS>ATOM
      1 C4          -3.6240     0.0000     0.8590 ca         1 5QA      -0.088000
      2 C5          -2.9710     1.2190     0.6150 ca         1 5QA      -0.106500
      3 C6          -1.6850     1.2340     0.0500 ca         1 5QA       0.133500
      4 C7           2.7580     0.0000    -0.1350 c          1 5QA       0.603100
      5 C8           3.6660    -0.0430     1.1330 c3         1 5QA       0.079600
      6 O1           3.1850     0.0340    -1.2840 o          1 5QA      -0.562100
      7 O            5.0890    -0.0400     0.8500 oh         1 5QA      -0.621000
      8 N            1.4050    -0.0020     0.1290 ns         1 5QA      -0.515900
      9 C1          -1.0320     0.0230    -0.2840 ca         1 5QA      -0.098300
     10 Cl          -0.9140     2.7990    -0.2130 cl         1 5QA      -0.185500
     11 C3          -2.9830    -1.2070     0.5410 ca         1 5QA      -0.106500
     12 C2          -1.6970    -1.2000    -0.0250 ca         1 5QA       0.133500
     13 Cl1         -0.9410    -2.7540    -0.3840 cl         1 5QA      -0.185500
     14 H1          -4.6200    -0.0080     1.2980 ha         1 5QA       0.125000
     15 H2          -3.4620     2.1560     0.8660 ha         1 5QA       0.135500
     16 H3           3.4020     0.8240     1.7540 h1         1 5QA       0.031700
     17 H4           3.3940    -0.9430     1.7000 h1         1 5QA       0.031700
     18 H5           5.5600    -0.0690     1.7130 ho         1 5QA       0.444000
     19 H6           1.1230    -0.0300     1.1020 hn         1 5QA       0.312500
     20 H7           0.5050     0.9320    -1.5180 h1         1 5QA       0.077700
     21 H8           0.4970    -0.8240    -1.5710 h1         1 5QA       0.077700
     22 H9          -3.4830    -2.1530     0.7340 ha         1 5QA       0.135500
     23 C            0.3660     0.0350    -0.9000 c3         1 5QA       0.148300
@<TRIPOS>BOND
     1     1     2 ar  
     2     1    11 ar  
     3     1    14 1   
     4     2     3 ar  
     5     2    15 1   
     6     3     9 ar  
     7     3    10 1   
     8     4     5 1   
     9     4     6 2   
    10     4     8 1   
    11     5     7 1   
    12     5    16 1   
    13     5    17 1   
    14     7    18 1   
    15     8    19 1   
    16     8    23 1   
    17     9    12 ar  
    18     9    23 1   
    19    11    12 ar  
    20    11    22 1   
    21    12    13 1   
    22    20    23 1   
    23    21    23 1   
@<TRIPOS>SUBSTRUCTURE
     1 5QA         1 TEMP              0 ****  ****    0 ROOT
