@<TRIPOS>MOLECULE
5QB
   30    30     1     0     0
SMALL
No Charge or Current Charge


@<TRIPOS>ATOM
      1 C4          -1.2110    -1.2280    -0.0990 ca         1 5QB       0.188600
      2 C5          -2.5340    -1.2470     0.3910 ca         1 5QB      -0.241000
      3 C6          -3.2070    -0.0470     0.6560 ca         1 5QB      -0.026000
      4 C7          -2.5650     1.1790     0.4370 ca         1 5QB      -0.241000
      5 C8          -1.2420     1.2130    -0.0520 ca         1 5QB       0.188600
      6 C10         -1.0940    -3.6990    -0.1600 c3         1 5QB       0.148900
      7 O2           3.7180     0.0750    -1.0390 o          1 5QB      -0.619100
      8 C1           3.1970     0.0470     0.0670 c          1 5QB       0.597100
      9 C            4.0060     0.0320     1.3580 c3         1 5QB      -0.178100
     10 N            1.8360     0.0250     0.2380 ns         1 5QB      -0.498900
     11 C3          -0.5620     0.0050    -0.3240 ca         1 5QB      -0.191300
     12 O           -0.5810     2.4070    -0.2730 os         1 5QB      -0.336100
     13 C9          -1.1880     3.6860    -0.0180 c3         1 5QB       0.148900
     14 O1          -0.5200    -2.3960    -0.3650 os         1 5QB      -0.336100
     15 H1          -3.0570    -2.1810     0.5720 ha         1 5QB       0.121000
     16 H2          -4.2280    -0.0680     1.0340 ha         1 5QB       0.112000
     17 H3          -3.1110     2.0920     0.6540 ha         1 5QB       0.121000
     18 H4          -1.3670    -3.8440     0.8930 h1         1 5QB       0.042700
     19 H5          -1.9890    -3.8330    -0.7800 h1         1 5QB       0.042700
     20 H6          -0.3720    -4.4790    -0.4330 h1         1 5QB       0.042700
     21 H7           5.0870     0.0500     1.1800 hc         1 5QB       0.056367
     22 H8           3.6860     0.8690     1.9890 hc         1 5QB       0.056367
     23 H9           3.7090    -0.8370     1.9560 hc         1 5QB       0.056367
     24 H10          1.4890     0.0020     1.1890 hn         1 5QB       0.313500
     25 H11          1.0310     0.9300    -1.4680 h1         1 5QB       0.064200
     26 H12          1.0540    -0.8340    -1.5010 h1         1 5QB       0.064200
     27 H13         -0.4860     4.4940    -0.2610 h1         1 5QB       0.042700
     28 H14         -2.0870     3.8210    -0.6330 h1         1 5QB       0.042700
     29 H15         -1.4650     3.7830     1.0390 h1         1 5QB       0.042700
     30 C2           0.8690     0.0340    -0.8550 c3         1 5QB       0.173300
@<TRIPOS>BOND
     1     1     2 ar  
     2     1    11 ar  
     3     1    14 1   
     4     2     3 ar  
     5     2    15 1   
     6     3     4 ar  
     7     3    16 1   
     8     4     5 ar  
     9     4    17 1   
    10     5    11 ar  
    11     5    12 1   
    12     6    14 1   
    13     6    18 1   
    14     6    19 1   
    15     6    20 1   
    16     7     8 2   
    17     8     9 1   
    18     8    10 1   
    19     9    21 1   
    20     9    22 1   
    21     9    23 1   
    22    10    24 1   
    23    10    30 1   
    24    11    30 1   
    25    12    13 1   
    26    13    27 1   
    27    13    28 1   
    28    13    29 1   
    29    25    30 1   
    30    26    30 1   
@<TRIPOS>SUBSTRUCTURE
     1 5QB         1 TEMP              0 ****  ****    0 ROOT
