@<TRIPOS>MOLECULE
5QB
   30    30     1     0     0
SMALL
bcc


@<TRIPOS>ATOM
      1 C4          -1.2460    -1.2400    -0.0670 ca         1 5QB       0.188600
      2 C5          -2.5600    -1.2230     0.4020 ca         1 5QB      -0.259000
      3 C6          -3.1710    -0.0040     0.6420 ca         1 5QB      -0.044000
      4 C7          -2.5100     1.1960     0.4330 ca         1 5QB      -0.259000
      5 C8          -1.1960     1.1690    -0.0350 ca         1 5QB       0.188600
      6 C10         -1.2180    -3.6160    -0.1450 c3         1 5QB       0.125700
      7 O2           3.6170     0.2660    -1.0100 o          1 5QB      -0.619100
      8 C1           3.1170     0.1370     0.1020 c          1 5QB       0.664100
      9 C            3.9530     0.1390     1.3580 c3         1 5QB      -0.178100
     10 N            1.7990    -0.0190     0.2820 ns         1 5QB      -0.565900
     11 C3          -0.5560    -0.0460    -0.3090 ca         1 5QB      -0.191300
     12 O           -0.4660     2.2770    -0.2540 os         1 5QB      -0.312900
     13 C9          -1.0650     3.5430    -0.0560 c3         1 5QB       0.125700
     14 O1          -0.5640    -2.3730    -0.3120 os         1 5QB      -0.312900
     15 H1          -3.1060    -2.1370     0.5870 ha         1 5QB       0.139000
     16 H2          -4.1890     0.0130     1.0080 ha         1 5QB       0.130000
     17 H3          -3.0180     2.1260     0.6430 ha         1 5QB       0.139000
     18 H4          -1.5260    -3.7800     0.8900 h1         1 5QB       0.042700
     19 H5          -2.0930    -3.7070    -0.7930 h1         1 5QB       0.042700
     20 H6          -0.4960    -4.3810    -0.4210 h1         1 5QB       0.042700
     21 H7           4.5660     1.0390     1.3830 hc         1 5QB       0.056367
     22 H8           3.3680     0.0940     2.2740 hc         1 5QB       0.056367
     23 H9           4.6310    -0.7150     1.3410 hc         1 5QB       0.056367
     24 H10          1.4420    -0.1540     1.2130 hn         1 5QB       0.313500
     25 H11          1.0290     0.7940    -1.4760 h1         1 5QB       0.064200
     26 H12          1.0280    -0.9520    -1.4310 h1         1 5QB       0.064200
     27 H13         -0.3100     4.2820    -0.3130 h1         1 5QB       0.042700
     28 H14         -1.9340     3.6890    -0.7020 h1         1 5QB       0.042700
     29 H15         -1.3670     3.6950     0.9830 h1         1 5QB       0.042700
     30 C2           0.8560    -0.0620    -0.8230 c3         1 5QB       0.173300
@<TRIPOS>BOND
     1     1     2 ar  
     2     1    11 ar  
     3     1    14 1   
     4     2     3 ar  
     5     2    15 1   
     6     3     4 ar  
     7     3    16 1   
     8     4     5 ar  
     9     4    17 1   
    10     5    11 ar  
    11     5    12 1   
    12     6    14 1   
    13     6    18 1   
    14     6    19 1   
    15     6    20 1   
    16     7     8 2   
    17     8     9 1   
    18     8    10 1   
    19     9    21 1   
    20     9    22 1   
    21     9    23 1   
    22    10    24 1   
    23    10    30 1   
    24    11    30 1   
    25    12    13 1   
    26    13    27 1   
    27    13    28 1   
    28    13    29 1   
    29    25    30 1   
    30    26    30 1   
@<TRIPOS>SUBSTRUCTURE
     1 5QB         1 TEMP              0 ****  ****    0 ROOT
