@<TRIPOS>MOLECULE
5QC
   70    76     1     0     0
SMALL
No Charge or Current Charge


@<TRIPOS>ATOM
      1 F            5.0600     3.9540     1.0730 f          1 5QC      -0.105667
      2 F1           6.5090     2.4560     0.4610 f          1 5QC      -0.105667
      3 F2           5.3410     3.5130    -1.0370 f          1 5QC      -0.105667
      4 O3           2.7090    -5.4310     1.0990 os         1 5QC      -0.102100
      5 O1           0.1230    -0.3140     0.4320 o          1 5QC      -0.559000
      6 N            3.3510    -5.8840    -0.1460 nc         1 5QC      -0.370700
      7 N2           3.1990     0.0470     0.4540 na         1 5QC       0.284000
      8 N3           4.4570     0.6060     0.4440 nc         1 5QC      -0.438800
      9 N4          -0.0370     1.9670    -0.0370 n          1 5QC      -0.230400
     10 C            2.7600    -4.0620     1.0820 ca         1 5QC       0.117100
     11 C1           3.3680    -3.6040    -0.0430 ca         1 5QC      -0.276900
     12 C2           3.7170    -4.7750    -0.7760 cd         1 5QC       0.594800
     13 C3           2.2730    -3.1890     2.0610 ca         1 5QC      -0.110000
     14 C4           2.4290    -1.8020     1.8450 ca         1 5QC      -0.032000
     15 C5           3.0550    -1.3220     0.6630 ca         1 5QC      -0.047200
     16 C6           3.5400    -2.2360    -0.3010 ca         1 5QC       0.003000
     17 C7           4.1830     1.8930     0.2650 cd         1 5QC       0.128300
     18 C8           2.7820     2.1220     0.1650 cd         1 5QC      -0.114300
     19 C9           2.1450     0.9260     0.2810 cc         1 5QC      -0.215600
     20 C10          5.2760     2.9510     0.1920 c3         1 5QC       0.296700
     21 C13          0.6770     0.7630     0.2430 c          1 5QC       0.616600
     22 C14         -1.4740     2.0570     0.0420 ca         1 5QC      -0.072000
     23 C15         -2.1630     1.4570     1.1160 ca         1 5QC      -0.101000
     24 C16         -3.5630     1.3420     1.0980 ca         1 5QC      -0.092500
     25 C17         -4.3100     1.7570    -0.0250 cp         1 5QC       0.007000
     26 C18         -3.6150     2.3130    -1.1210 ca         1 5QC      -0.092500
     27 C19         -2.2150     2.4430    -1.0970 ca         1 5QC      -0.101000
     28 C24         -5.7770     1.4990    -0.0950 cp         1 5QC      -0.026000
     29 C25         -6.2900     0.3770    -0.8080 ca         1 5QC      -0.069300
     30 C11         -5.3530    -0.5900    -1.5350 c3         1 5QC       0.261100
     31 N7          -4.4800    -1.3310    -0.5980 n3         1 5QC      -0.799600
     32 C20         -4.9160    -2.6800    -0.1680 c5         1 5QC       0.198800
     33 C23         -3.0600    -1.4890    -0.9680 c5         1 5QC       0.167800
     34 C12         -6.6810     2.3550     0.5760 ca         1 5QC      -0.104000
     35 C21         -8.0640     2.1180     0.5340 ca         1 5QC      -0.111000
     36 C22         -7.6810     0.1470    -0.8410 ca         1 5QC      -0.109000
     37 C26         -8.5630     1.0140    -0.1750 ca         1 5QC      -0.106000
     38 C27         -2.5570    -2.1770     0.3290 c5         1 5QC       0.169300
     39 C28         -3.6350    -3.2890     0.4960 c5         1 5QC      -0.093400
     40 O2          -1.2270    -2.6900     0.2270 oh         1 5QC      -0.663000
     41 C29          0.6800     3.1110    -0.6750 c6         1 5QC       0.112000
     42 C31          2.0430     3.4200    -0.0160 c6         1 5QC      -0.015100
     43 HN11         4.7260    -5.7670    -2.2150 hn         1 5QC       0.475000
     44 HN12         4.8760    -4.0490    -2.2780 hn         1 5QC       0.475000
     45 H4           2.0590    -1.0990     2.5880 ha         1 5QC       0.137000
     46 H6           4.0250    -1.8880    -1.2120 ha         1 5QC       0.136000
     47 H15         -1.6120     1.0770     1.9730 ha         1 5QC       0.119500
     48 H16         -4.0740     0.8710     1.9340 ha         1 5QC       0.120000
     49 H18         -4.1660     2.6050    -2.0110 ha         1 5QC       0.120000
     50 H19         -1.7090     2.8190    -1.9830 ha         1 5QC       0.119500
     51 H111        -5.9340    -1.2880    -2.1540 h1         1 5QC       0.035200
     52 H112        -4.7400     0.0010    -2.2290 h1         1 5QC       0.035200
     53 H201        -5.7600    -2.6260     0.5340 h1         1 5QC       0.031700
     54 H202        -5.2290    -3.2900    -1.0270 h1         1 5QC       0.031700
     55 H231        -2.9290    -2.1220    -1.8580 h1         1 5QC       0.041700
     56 H232        -2.5620    -0.5250    -1.1400 h1         1 5QC       0.041700
     57 H12         -6.2990     3.2100     1.1300 ha         1 5QC       0.114000
     58 H21         -8.7480     2.7870     1.0520 ha         1 5QC       0.114000
     59 H22         -8.0790    -0.7090    -1.3810 ha         1 5QC       0.112000
     60 H26         -9.6350     0.8280    -0.2060 ha         1 5QC       0.114000
     61 H27         -2.6190    -1.4700     1.1690 h1         1 5QC       0.045700
     62 H281        -3.7980    -3.5380     1.5490 hc         1 5QC       0.054200
     63 H282        -3.3450    -4.2140    -0.0150 hc         1 5QC       0.054200
     64 HO2         -0.6390    -1.8920     0.2850 ho         1 5QC       0.464000
     65 H291         0.0520     4.0130    -0.6390 h1         1 5QC       0.056200
     66 H292         0.8430     2.8660    -1.7340 h1         1 5QC       0.056200
     67 H311         1.8820     3.9020     0.9580 hc         1 5QC       0.073200
     68 H312         2.6070     4.1290    -0.6360 hc         1 5QC       0.073200
     69 H3           1.7900    -3.5700     2.9580 ha         1 5QC       0.154000
     70 N1           4.3540    -4.8590    -1.9610 nv         1 5QC      -0.991200
@<TRIPOS>BOND
     1     1    20 1   
     2     2    20 1   
     3     3    20 1   
     4     4     6 1   
     5     4    10 1   
     6     5    21 2   
     7     6    12 2   
     8     7     8 1   
     9     7    15 1   
    10     7    19 1   
    11     8    17 2   
    12     9    21 1   
    13     9    22 1   
    14     9    41 1   
    15    10    11 ar  
    16    10    13 ar  
    17    11    12 1   
    18    11    16 ar  
    19    12    70 1   
    20    13    14 ar  
    21    13    69 1   
    22    14    15 ar  
    23    14    45 1   
    24    15    16 ar  
    25    16    46 1   
    26    17    18 1   
    27    17    20 1   
    28    18    19 2   
    29    18    42 1   
    30    19    21 1   
    31    22    23 ar  
    32    22    27 ar  
    33    23    24 ar  
    34    23    47 1   
    35    24    25 ar  
    36    24    48 1   
    37    25    26 ar  
    38    25    28 1   
    39    26    27 ar  
    40    26    49 1   
    41    27    50 1   
    42    28    29 ar  
    43    28    34 ar  
    44    29    30 1   
    45    29    36 ar  
    46    30    31 1   
    47    30    51 1   
    48    30    52 1   
    49    31    32 1   
    50    31    33 1   
    51    32    39 1   
    52    32    53 1   
    53    32    54 1   
    54    33    38 1   
    55    33    55 1   
    56    33    56 1   
    57    34    35 ar  
    58    34    57 1   
    59    35    37 ar  
    60    35    58 1   
    61    36    37 ar  
    62    36    59 1   
    63    37    60 1   
    64    38    39 1   
    65    38    40 1   
    66    38    61 1   
    67    39    62 1   
    68    39    63 1   
    69    40    64 1   
    70    41    42 1   
    71    41    65 1   
    72    41    66 1   
    73    42    67 1   
    74    42    68 1   
    75    43    70 1   
    76    44    70 1   
@<TRIPOS>SUBSTRUCTURE
     1 5QC         1 TEMP              0 ****  ****    0 ROOT
