@<TRIPOS>MOLECULE
5QC
   70    76     1     0     0
SMALL
bcc


@<TRIPOS>ATOM
      1 F            4.8730     3.6720     1.9300 f          1 5QC      -0.226967
      2 F1           6.2980     2.1660     1.3230 f          1 5QC      -0.226967
      3 F2           5.4450     3.5050    -0.1330 f          1 5QC      -0.226967
      4 O3           2.7030    -5.4010    -0.2920 os         1 5QC      -0.003600
      5 O1           0.1520    -0.3780     0.1750 o          1 5QC      -0.634500
      6 N            3.3450    -5.5650    -1.5150 nc         1 5QC      -0.469200
      7 N2           3.0860     0.0010     0.4250 na         1 5QC       0.233300
      8 N3           4.2700     0.5460     0.6310 nc         1 5QC      -0.438800
      9 N4          -0.0220     1.8880     0.0690 n          1 5QC      -0.390000
     10 C            2.7240    -4.1080     0.0340 ca         1 5QC       0.117100
     11 C1           3.3640    -3.3810    -0.9560 ca         1 5QC      -0.276900
     12 C2           3.7290    -4.3870    -1.9170 cd         1 5QC       0.594800
     13 C3           2.1990    -3.5180     1.1790 ca         1 5QC      -0.128000
     14 C4           2.3420    -2.1500     1.2790 ca         1 5QC      -0.050000
     15 C5           2.9720    -1.4070     0.2700 ca         1 5QC      -0.047200
     16 C6           3.4960    -2.0000    -0.8580 ca         1 5QC      -0.015000
     17 C7           4.0540     1.8440     0.7460 cd         1 5QC       0.193600
     18 C8           2.6970     2.1560     0.6020 cd         1 5QC      -0.179600
     19 C9           2.1060     0.9370     0.3950 cc         1 5QC      -0.164900
     20 C10          5.1760     2.7900     0.9700 c3         1 5QC       0.660600
     21 C13          0.6670     0.7290     0.1940 c          1 5QC       0.759100
     22 C14         -1.4300     1.8020    -0.1250 ca         1 5QC       0.020600
     23 C15         -2.2790     1.9300     0.9650 ca         1 5QC      -0.119000
     24 C16         -3.6460     1.7880     0.7950 ca         1 5QC      -0.110500
     25 C17         -4.1830     1.5050    -0.4580 cp         1 5QC       0.007000
     26 C18         -3.3260     1.4450    -1.5540 ca         1 5QC      -0.110500
     27 C19         -1.9560     1.5870    -1.3900 ca         1 5QC      -0.119000
     28 C24         -5.6410     1.2860    -0.6140 cp         1 5QC      -0.026000
     29 C25         -6.1530     0.0390    -1.0050 ca         1 5QC      -0.069300
     30 C11         -5.2340    -1.1390    -1.2430 c3         1 5QC       0.261100
     31 N7          -4.3760    -1.3650    -0.1210 n3         1 5QC      -0.799600
     32 C20         -4.9580    -1.9280     1.0820 c5         1 5QC       0.198800
     33 C23         -3.0540    -1.8930    -0.3190 c5         1 5QC       0.167800
     34 C12         -6.5210     2.3330    -0.3510 ca         1 5QC      -0.122000
     35 C21         -7.8940     2.1680    -0.4860 ca         1 5QC      -0.129000
     36 C22         -7.5280    -0.1120    -1.1330 ca         1 5QC      -0.127000
     37 C26         -8.4000     0.9410    -0.8830 ca         1 5QC      -0.124000
     38 C27         -2.5500    -1.9390     1.1190 c5         1 5QC       0.146100
     39 C28         -3.7600    -2.5180     1.8450 c5         1 5QC      -0.093400
     40 O2          -1.3940    -2.7100     1.3270 oh         1 5QC      -0.600800
     41 C29          0.6310     3.1780    -0.1930 c6         1 5QC       0.112000
     42 C31          1.8740     3.3940     0.6600 c6         1 5QC      -0.015100
     43 HN11         4.6830    -4.9780    -3.5940 hn         1 5QC       0.419800
     44 HN12         4.9400    -3.3720    -3.1700 hn         1 5QC       0.419800
     45 H4           1.9660    -1.6390     2.1550 ha         1 5QC       0.155000
     46 H6           3.9770    -1.4110    -1.6280 ha         1 5QC       0.154000
     47 H15         -1.8670     2.1150     1.9490 ha         1 5QC       0.137500
     48 H16         -4.3010     1.8510     1.6550 ha         1 5QC       0.138000
     49 H18         -3.7250     1.2610    -2.5430 ha         1 5QC       0.138000
     50 H19         -1.2950     1.5130    -2.2450 ha         1 5QC       0.137500
     51 H111        -5.8450    -2.0210    -1.5000 h1         1 5QC       0.035200
     52 H112        -4.6080    -0.9450    -2.1170 h1         1 5QC       0.035200
     53 H201        -5.4710    -1.1550     1.6620 h1         1 5QC       0.031700
     54 H202        -5.7060    -2.7050     0.8640 h1         1 5QC       0.031700
     55 H231        -3.0260    -2.9060    -0.7590 h1         1 5QC       0.041700
     56 H232        -2.4590    -1.2300    -0.9520 h1         1 5QC       0.041700
     57 H12         -6.1230     3.2930    -0.0450 ha         1 5QC       0.132000
     58 H21         -8.5600     2.9960    -0.2790 ha         1 5QC       0.132000
     59 H22         -7.9260    -1.0770    -1.4240 ha         1 5QC       0.130000
     60 H26         -9.4670     0.7970    -0.9870 ha         1 5QC       0.132000
     61 H27         -2.3940    -0.9030     1.4430 h1         1 5QC       0.045700
     62 H281        -3.7780    -2.2810     2.9100 hc         1 5QC       0.054200
     63 H282        -3.7450    -3.6060     1.7490 hc         1 5QC       0.054200
     64 HO2         -0.6550    -2.1990     0.9790 ho         1 5QC       0.425000
     65 H291        -0.0980     3.9590     0.0100 h1         1 5QC       0.056200
     66 H292         0.8940     3.2430    -1.2530 h1         1 5QC       0.056200
     67 H311         1.5980     3.6100     1.6960 hc         1 5QC       0.073200
     68 H312         2.4070     4.2650     0.2800 hc         1 5QC       0.073200
     69 H3           1.7120    -4.0920     1.9540 ha         1 5QC       0.172000
     70 N1           4.3270    -4.1680    -3.1120 nv         1 5QC      -0.880800
@<TRIPOS>BOND
     1     1    20 1   
     2     2    20 1   
     3     3    20 1   
     4     4     6 1   
     5     4    10 1   
     6     5    21 2   
     7     6    12 2   
     8     7     8 1   
     9     7    15 1   
    10     7    19 1   
    11     8    17 2   
    12     9    21 1   
    13     9    22 1   
    14     9    41 1   
    15    10    11 ar  
    16    10    13 ar  
    17    11    12 1   
    18    11    16 ar  
    19    12    70 1   
    20    13    14 ar  
    21    13    69 1   
    22    14    15 ar  
    23    14    45 1   
    24    15    16 ar  
    25    16    46 1   
    26    17    18 1   
    27    17    20 1   
    28    18    19 2   
    29    18    42 1   
    30    19    21 1   
    31    22    23 ar  
    32    22    27 ar  
    33    23    24 ar  
    34    23    47 1   
    35    24    25 ar  
    36    24    48 1   
    37    25    26 ar  
    38    25    28 1   
    39    26    27 ar  
    40    26    49 1   
    41    27    50 1   
    42    28    29 ar  
    43    28    34 ar  
    44    29    30 1   
    45    29    36 ar  
    46    30    31 1   
    47    30    51 1   
    48    30    52 1   
    49    31    32 1   
    50    31    33 1   
    51    32    39 1   
    52    32    53 1   
    53    32    54 1   
    54    33    38 1   
    55    33    55 1   
    56    33    56 1   
    57    34    35 ar  
    58    34    57 1   
    59    35    37 ar  
    60    35    58 1   
    61    36    37 ar  
    62    36    59 1   
    63    37    60 1   
    64    38    39 1   
    65    38    40 1   
    66    38    61 1   
    67    39    62 1   
    68    39    63 1   
    69    40    64 1   
    70    41    42 1   
    71    41    65 1   
    72    41    66 1   
    73    42    67 1   
    74    42    68 1   
    75    43    70 1   
    76    44    70 1   
@<TRIPOS>SUBSTRUCTURE
     1 5QC         1 TEMP              0 ****  ****    0 ROOT
