@<TRIPOS>MOLECULE
5QD
   22    22     1     0     0
SMALL
No Charge or Current Charge


@<TRIPOS>ATOM
      1 C4          -1.2730    -1.2330     0.1210 ca         1 5QD       0.134500
      2 C5          -2.5960    -1.3110    -0.3450 ca         1 5QD      -0.107000
      3 C6          -3.3030    -0.1430    -0.6710 ca         1 5QD      -0.086000
      4 C7          -2.6800     1.1060    -0.5330 ca         1 5QD      -0.107000
      5 C8          -1.3570     1.1930    -0.0670 ca         1 5QD       0.134500
      6 O            3.6490     0.2220     0.9420 o          1 5QD      -0.609100
      7 C1           3.1240     0.1180    -0.1570 c          1 5QD       0.599100
      8 C            3.9280     0.0460    -1.4490 c3         1 5QD      -0.177100
      9 N            1.7630     0.0590    -0.3190 ns         1 5QD      -0.504900
     10 C3          -0.6370     0.0220     0.2730 ca         1 5QD      -0.098300
     11 Cl          -0.6280     2.7940     0.0650 cl         1 5QD      -0.185500
     12 Cl1         -0.4360    -2.7410     0.4940 cl         1 5QD      -0.185500
     13 H1          -3.0740    -2.2820    -0.4570 ha         1 5QD       0.136000
     14 H2          -4.3280    -0.2070    -1.0320 ha         1 5QD       0.126000
     15 H3          -3.2220     2.0130    -0.7900 ha         1 5QD       0.136000
     16 H4           3.6460    -0.8620    -1.9940 hc         1 5QD       0.059367
     17 H5           3.5880     0.8380    -2.1260 hc         1 5QD       0.059367
     18 H6           5.0090     0.0960    -1.2780 hc         1 5QD       0.059367
     19 H7           1.4140    -0.0260    -1.2660 hn         1 5QD       0.318500
     20 H8           1.0120    -0.7090     1.4800 h1         1 5QD       0.071200
     21 H9           0.9520     1.0420     1.3430 h1         1 5QD       0.071200
     22 C2           0.8010     0.1110     0.7820 c3         1 5QD       0.152300
@<TRIPOS>BOND
     1     1     2 ar  
     2     1    10 ar  
     3     1    12 1   
     4     2     3 ar  
     5     2    13 1   
     6     3     4 ar  
     7     3    14 1   
     8     4     5 ar  
     9     4    15 1   
    10     5    10 ar  
    11     5    11 1   
    12     6     7 2   
    13     7     8 1   
    14     7     9 1   
    15     8    16 1   
    16     8    17 1   
    17     8    18 1   
    18     9    19 1   
    19     9    22 1   
    20    10    22 1   
    21    20    22 1   
    22    21    22 1   
@<TRIPOS>SUBSTRUCTURE
     1 5QD         1 TEMP              0 ****  ****    0 ROOT
