@<TRIPOS>MOLECULE
5QD
   22    22     1     0     0
SMALL
abcg2


@<TRIPOS>ATOM
      1 C4          -1.2700    -1.1830     0.0540 ca         1 5QD       0.134500
      2 C5          -2.5790    -1.2480    -0.3960 ca         1 5QD      -0.107000
      3 C6          -3.2640    -0.0720    -0.6490 ca         1 5QD      -0.086000
      4 C7          -2.6450     1.1530    -0.4670 ca         1 5QD      -0.107000
      5 C8          -1.3350     1.1860    -0.0160 ca         1 5QD       0.134500
      6 O            3.5640     0.0980     0.9250 o          1 5QD      -0.609100
      7 C1           3.0480     0.0520    -0.1850 c          1 5QD       0.599100
      8 C            3.8670     0.0050    -1.4500 c3         1 5QD      -0.177100
      9 N            1.7170     0.0390    -0.3520 ns         1 5QD      -0.504900
     10 C3          -0.6130     0.0280     0.2780 ca         1 5QD      -0.098300
     11 CL          -0.5820     2.7370     0.1640 cl         1 5QD      -0.185500
     12 CL1         -0.4320    -2.6750     0.3250 cl         1 5QD      -0.185500
     13 H1          -3.0540    -2.2060    -0.5520 ha         1 5QD       0.136000
     14 H2          -4.2860    -0.1110    -1.0000 ha         1 5QD       0.126000
     15 H3          -3.1720     2.0730    -0.6750 ha         1 5QD       0.136000
     16 H4           4.4980    -0.8830    -1.4370 hc         1 5QD       0.059367
     17 H5           3.2680    -0.0110    -2.3580 hc         1 5QD       0.059367
     18 H6           4.5260     0.8720    -1.4860 hc         1 5QD       0.059367
     19 H7           1.3350    -0.0040    -1.2820 hn         1 5QD       0.318500
     20 H8           0.9920    -0.7630     1.4420 h1         1 5QD       0.071200
     21 H9           0.9640     0.9810     1.3610 h1         1 5QD       0.071200
     22 C2           0.8040     0.0770     0.7720 c3         1 5QD       0.152300
@<TRIPOS>BOND
     1     1     2 ar  
     2     1    10 ar  
     3     1    12 1   
     4     2     3 ar  
     5     2    13 1   
     6     3     4 ar  
     7     3    14 1   
     8     4     5 ar  
     9     4    15 1   
    10     5    10 ar  
    11     5    11 1   
    12     6     7 2   
    13     7     8 1   
    14     7     9 1   
    15     8    16 1   
    16     8    17 1   
    17     8    18 1   
    18     9    19 1   
    19     9    22 1   
    20    10    22 1   
    21    20    22 1   
    22    21    22 1   
@<TRIPOS>SUBSTRUCTURE
     1 5QD         1 TEMP              0 ****  ****    0 ROOT
