@<TRIPOS>MOLECULE
5QE
   69    72     1     0     0
SMALL
abcg2


@<TRIPOS>ATOM
      1 O30         16.0090    14.9330     1.8140 o          1 5QE      -0.586100
      2 C28         17.1940    15.0860     2.1010 c          1 5QE       0.603100
      3 C20         18.2790    14.9370     1.0600 c3         1 5QE      -0.177100
      4 N27         17.6370    15.4060     3.3480 ns         1 5QE      -0.148000
      5 C14         16.9040    15.6360     4.5260 ca         1 5QE      -0.023000
      6 C15         17.6240    16.0310     5.6600 ca         1 5QE      -0.144500
      7 C16         16.9740    16.2850     6.8570 ca         1 5QE      -0.082000
      8 C13         15.5190    15.4930     4.6230 ca         1 5QE      -0.144500
      9 C12         14.8850    15.7550     5.8320 ca         1 5QE      -0.082000
     10 C11         15.5870    16.1550     6.9660 ca         1 5QE      -0.107300
     11 C10         14.8540    16.4540     8.2490 c3         1 5QE      -0.020100
     12 C9          15.2180    17.8170     8.8490 c3         1 5QE       0.056600
     13 S8          14.0550    18.3220    10.1560 ss         1 5QE      -0.371300
     14 C7          12.6550    18.8020     9.1740 ca         1 5QE       0.545300
     15 N6          12.8650    19.1970     7.9350 nb         1 5QE      -0.769000
     16 C5          11.8450    19.5780     7.1520 ca         1 5QE       0.643900
     17 C4          10.5100    19.6260     7.6460 ca         1 5QE      -0.211300
     18 C3          10.2820    19.2160     8.9470 ca         1 5QE       0.044700
     19 C6           8.9170    19.3140     9.5700 c6         1 5QE      -0.068100
     20 C30          7.8080    19.6240     8.5640 c6         1 5QE       0.178000
     21 C26          7.3920    18.3710     7.7900 c3         1 5QE      -0.099600
     22 C25          6.6060    20.2410     9.2620 c3         1 5QE      -0.099600
     23 O8           8.3020    20.6530     7.6760 os         1 5QE      -0.454000
     24 C8           9.3780    20.2350     6.8560 c6         1 5QE       0.217900
     25 C2          11.3680    18.7620     9.7310 ca         1 5QE      -0.112000
     26 C1          11.1620    18.3030    11.0550 cg         1 5QE       0.340000
     27 N1          10.9850    17.9310    12.1350 n1         1 5QE      -0.455000
     28 N17         12.1740    20.0090     5.8880 nh         1 5QE      -0.770300
     29 C18         11.4700    19.5270     4.6980 c6         1 5QE       0.177300
     30 C19         12.2180    18.3440     4.0760 c6         1 5QE       0.136800
     31 C17         11.5740    17.8840     2.7860 c3         1 5QE      -0.085100
     32 O20         13.5710    18.7030     3.7880 os         1 5QE      -0.458000
     33 C21         14.2850    19.1230     4.9610 c6         1 5QE       0.136800
     34 C24         15.7090    19.4300     4.5580 c3         1 5QE      -0.085100
     35 C22         13.5720    20.3170     5.5810 c6         1 5QE       0.177300
     36 H1          18.1530    15.7220     0.3120 hc         1 5QE       0.064367
     37 H2          19.2850    14.9970     1.4720 hc         1 5QE       0.064367
     38 H3          18.1510    13.9760     0.5590 hc         1 5QE       0.064367
     39 H4          18.6360    15.5110     3.4440 hn         1 5QE       0.148000
     40 H5          18.7000    16.1450     5.5940 ha         1 5QE       0.130500
     41 H6          17.5600    16.5920     7.7140 ha         1 5QE       0.112000
     42 H7          14.9480    15.1950     3.7610 ha         1 5QE       0.130500
     43 H8          13.8070    15.6580     5.8840 ha         1 5QE       0.112000
     44 H9          13.7830    16.4290     8.0460 hc         1 5QE       0.056700
     45 H10         15.0530    15.6800     8.9950 hc         1 5QE       0.056700
     46 H11         16.1920    17.8000     9.3370 h1         1 5QE       0.082200
     47 H12         15.2230    18.5960     8.0910 h1         1 5QE       0.082200
     48 H13          8.9500    20.1070    10.3250 hc         1 5QE       0.074200
     49 H14          8.6880    18.3900    10.1050 hc         1 5QE       0.074200
     50 H15          6.8760    17.6860     8.4630 hc         1 5QE       0.046533
     51 H16          6.7110    18.6380     6.9800 hc         1 5QE       0.046533
     52 H17          8.2470    17.8410     7.3700 hc         1 5QE       0.046533
     53 H18          6.2310    19.5670    10.0330 hc         1 5QE       0.046533
     54 H19          6.8880    21.1850     9.7320 hc         1 5QE       0.046533
     55 H20          5.8060    20.4290     8.5440 hc         1 5QE       0.046533
     56 H21          9.7340    21.1250     6.3350 h1         1 5QE       0.055700
     57 H22          9.0050    19.5400     6.0970 h1         1 5QE       0.055700
     58 H23         11.4060    20.3410     3.9720 h1         1 5QE       0.068200
     59 H24         10.4650    19.2050     4.9450 h1         1 5QE       0.068200
     60 H25         12.2250    17.5250     4.8080 h1         1 5QE       0.046200
     61 H26         10.5480    17.5600     2.9690 hc         1 5QE       0.047367
     62 H27         11.5580    18.6960     2.0560 hc         1 5QE       0.047367
     63 H28         12.1320    17.0470     2.3640 hc         1 5QE       0.047367
     64 H29         14.2710    18.3010     5.6810 h1         1 5QE       0.046200
     65 H30         16.2930    19.7090     5.4370 hc         1 5QE       0.047367
     66 H31         16.1690    18.5520     4.1050 hc         1 5QE       0.047367
     67 H32         15.7390    20.2550     3.8420 hc         1 5QE       0.047367
     68 H33         14.0800    20.6350     6.4870 h1         1 5QE       0.068200
     69 H34         13.5710    21.1420     4.8630 h1         1 5QE       0.068200
@<TRIPOS>BOND
     1     1     2 2   
     2     2     3 1   
     3     2     4 1   
     4     3    36 1   
     5     3    37 1   
     6     3    38 1   
     7     4     5 1   
     8     4    39 1   
     9     5     6 ar  
    10     5     8 ar  
    11     6     7 ar  
    12     6    40 1   
    13     7    10 ar  
    14     7    41 1   
    15     8     9 ar  
    16     8    42 1   
    17     9    10 ar  
    18     9    43 1   
    19    10    11 1   
    20    11    12 1   
    21    11    44 1   
    22    11    45 1   
    23    12    13 1   
    24    12    46 1   
    25    12    47 1   
    26    13    14 1   
    27    14    15 ar  
    28    14    25 ar  
    29    15    16 ar  
    30    16    17 ar  
    31    16    28 1   
    32    17    18 ar  
    33    17    24 1   
    34    18    19 1   
    35    18    25 ar  
    36    19    20 1   
    37    19    48 1   
    38    19    49 1   
    39    20    21 1   
    40    20    22 1   
    41    20    23 1   
    42    21    50 1   
    43    21    51 1   
    44    21    52 1   
    45    22    53 1   
    46    22    54 1   
    47    22    55 1   
    48    23    24 1   
    49    24    56 1   
    50    24    57 1   
    51    25    26 1   
    52    26    27 3   
    53    28    29 1   
    54    28    35 1   
    55    29    30 1   
    56    29    58 1   
    57    29    59 1   
    58    30    31 1   
    59    30    32 1   
    60    30    60 1   
    61    31    61 1   
    62    31    62 1   
    63    31    63 1   
    64    32    33 1   
    65    33    34 1   
    66    33    35 1   
    67    33    64 1   
    68    34    65 1   
    69    34    66 1   
    70    34    67 1   
    71    35    68 1   
    72    35    69 1   
@<TRIPOS>SUBSTRUCTURE
     1 5QE         1 TEMP              0 ****  ****    0 ROOT
