@<TRIPOS>MOLECULE
5QE
   69    72     1     0     0
SMALL
No Charge or Current Charge


@<TRIPOS>ATOM
      1 O30         16.5120    14.5590     1.4950 o          1 5QE      -0.586100
      2 C28         17.5520    15.1180     1.8250 c          1 5QE       0.603100
      3 C20         18.7150    15.2690     0.8480 c3         1 5QE      -0.177100
      4 N27         17.7970    15.6600     3.0810 ns         1 5QE      -0.148000
      5 C14         17.0060    15.7500     4.2590 ca         1 5QE      -0.023000
      6 C15         17.5950    16.3300     5.3970 ca         1 5QE      -0.144500
      7 C16         16.8710    16.4660     6.5940 ca         1 5QE      -0.082000
      8 C13         15.6720    15.2960     4.3430 ca         1 5QE      -0.144500
      9 C12         14.9490    15.4290     5.5400 ca         1 5QE      -0.082000
     10 C11         15.5340    16.0250     6.6730 ca         1 5QE      -0.107300
     11 C10         14.6970    16.1870     7.9440 c3         1 5QE      -0.020100
     12 C9          15.0770    17.4110     8.8110 c3         1 5QE       0.056600
     13 S8          13.7970    17.7490    10.1130 ss         1 5QE      -0.371300
     14 C7          12.4250    18.5150     9.2330 ca         1 5QE       0.545300
     15 N6          12.6660    18.8670     7.9600 nb         1 5QE      -0.769000
     16 C5          11.6890    19.4530     7.2630 ca         1 5QE       0.643900
     17 C4          10.4210    19.7380     7.7990 ca         1 5QE      -0.211300
     18 C3          10.1520    19.3660     9.1330 ca         1 5QE       0.044700
     19 C6           8.7830    19.6710     9.7610 c6         1 5QE      -0.068100
     20 C30          7.7140    20.0790     8.7190 c6         1 5QE       0.178000
     21 C26          7.1080    18.8500     7.9700 c3         1 5QE      -0.099600
     22 C25          6.5510    20.8660     9.3830 c3         1 5QE      -0.099600
     23 O8           8.3020    20.9830     7.7600 os         1 5QE      -0.454000
     24 C8           9.3690    20.4490     6.9410 c6         1 5QE       0.217900
     25 C2          11.1880    18.7440     9.8660 ca         1 5QE      -0.112000
     26 C1          11.0060    18.3570    11.2350 cg         1 5QE       0.340000
     27 N1          10.8380    18.0490    12.3480 n1         1 5QE      -0.455000
     28 N17         12.0270    19.7390     5.9320 nh         1 5QE      -0.770300
     29 C18         11.4310    18.9070     4.8400 c6         1 5QE       0.177300
     30 C19         12.4350    17.8300     4.3160 c6         1 5QE       0.136800
     31 C17         11.9020    17.0660     3.0820 c3         1 5QE      -0.085100
     32 O20         13.6840    18.4450     3.9310 os         1 5QE      -0.458000
     33 C21         14.3230    19.1270     5.0330 c6         1 5QE       0.136800
     34 C24         15.6790    19.6630     4.5190 c3         1 5QE      -0.085100
     35 C22         13.3950    20.2550     5.5890 c6         1 5QE       0.177300
     36 H1          18.9810    16.3300     0.7720 hc         1 5QE       0.064367
     37 H2          19.6160    14.8360     1.2960 hc         1 5QE       0.064367
     38 H3          18.5010    14.8340    -0.1340 hc         1 5QE       0.064367
     39 H4          18.7160    16.0740     3.1760 hn         1 5QE       0.148000
     40 H5          18.6230    16.6840     5.3560 ha         1 5QE       0.130500
     41 H6          17.3620    16.9180     7.4530 ha         1 5QE       0.112000
     42 H7          15.1730    14.8440     3.4920 ha         1 5QE       0.130500
     43 H8          13.9210    15.0760     5.5810 ha         1 5QE       0.112000
     44 H9          13.6400    16.2750     7.6660 hc         1 5QE       0.056700
     45 H10         14.7740    15.2830     8.5590 hc         1 5QE       0.056700
     46 H11         16.0350    17.2150     9.3100 h1         1 5QE       0.082200
     47 H12         15.2000    18.3010     8.1820 h1         1 5QE       0.082200
     48 H13          8.9120    20.4820    10.4910 hc         1 5QE       0.074200
     49 H14          8.4160    18.8060    10.3300 hc         1 5QE       0.074200
     50 H15          6.4820    18.2510     8.6420 hc         1 5QE       0.046533
     51 H16          6.4790    19.1650     7.1290 hc         1 5QE       0.046533
     52 H17          7.8840    18.1810     7.5810 hc         1 5QE       0.046533
     53 H18          6.0500    20.2630    10.1500 hc         1 5QE       0.046533
     54 H19          6.9140    21.7810     9.8660 hc         1 5QE       0.046533
     55 H20          5.7950    21.1600     8.6450 hc         1 5QE       0.046533
     56 H21          9.8320    21.2810     6.3900 h1         1 5QE       0.055700
     57 H22          8.9500    19.7540     6.2010 h1         1 5QE       0.055700
     58 H23         11.1230    19.5540     4.0050 h1         1 5QE       0.068200
     59 H24         10.5230    18.3950     5.1920 h1         1 5QE       0.068200
     60 H25         12.6310    17.1040     5.1180 h1         1 5QE       0.046200
     61 H26         10.9670    16.5430     3.3180 hc         1 5QE       0.047367
     62 H27         11.7040    17.7460     2.2450 hc         1 5QE       0.047367
     63 H28         12.6260    16.3150     2.7440 hc         1 5QE       0.047367
     64 H29         14.5200    18.3990     5.8310 h1         1 5QE       0.046200
     65 H30         16.2370    20.1530     5.3250 hc         1 5QE       0.047367
     66 H31         16.3010    18.8460     4.1340 hc         1 5QE       0.047367
     67 H32         15.5410    20.3920     3.7120 hc         1 5QE       0.047367
     68 H33         13.8710    20.7150     6.4670 h1         1 5QE       0.068200
     69 H34         13.3080    21.0510     4.8350 h1         1 5QE       0.068200
@<TRIPOS>BOND
     1     1     2 2   
     2     2     3 1   
     3     2     4 1   
     4     3    36 1   
     5     3    37 1   
     6     3    38 1   
     7     4     5 1   
     8     4    39 1   
     9     5     6 ar  
    10     5     8 ar  
    11     6     7 ar  
    12     6    40 1   
    13     7    10 ar  
    14     7    41 1   
    15     8     9 ar  
    16     8    42 1   
    17     9    10 ar  
    18     9    43 1   
    19    10    11 1   
    20    11    12 1   
    21    11    44 1   
    22    11    45 1   
    23    12    13 1   
    24    12    46 1   
    25    12    47 1   
    26    13    14 1   
    27    14    15 ar  
    28    14    25 ar  
    29    15    16 ar  
    30    16    17 ar  
    31    16    28 1   
    32    17    18 ar  
    33    17    24 1   
    34    18    19 1   
    35    18    25 ar  
    36    19    20 1   
    37    19    48 1   
    38    19    49 1   
    39    20    21 1   
    40    20    22 1   
    41    20    23 1   
    42    21    50 1   
    43    21    51 1   
    44    21    52 1   
    45    22    53 1   
    46    22    54 1   
    47    22    55 1   
    48    23    24 1   
    49    24    56 1   
    50    24    57 1   
    51    25    26 1   
    52    26    27 3   
    53    28    29 1   
    54    28    35 1   
    55    29    30 1   
    56    29    58 1   
    57    29    59 1   
    58    30    31 1   
    59    30    32 1   
    60    30    60 1   
    61    31    61 1   
    62    31    62 1   
    63    31    63 1   
    64    32    33 1   
    65    33    34 1   
    66    33    35 1   
    67    33    64 1   
    68    34    65 1   
    69    34    66 1   
    70    34    67 1   
    71    35    68 1   
    72    35    69 1   
@<TRIPOS>SUBSTRUCTURE
     1 5QE         1 TEMP              0 ****  ****    0 ROOT
