@<TRIPOS>MOLECULE
5QF
   75    78     1     0     0
SMALL
abcg2


@<TRIPOS>ATOM
      1 C1          10.1210    19.0720     9.4160 ca         1 5QF       0.050700
      2 C2           9.9370    19.3190     8.0690 ca         1 5QF      -0.220300
      3 C3          11.0630    19.1970     7.2040 ca         1 5QF       0.655900
      4 N4          12.2870    18.9130     7.6790 nb         1 5QF      -0.774000
      5 C5          12.4670    18.6860     8.9650 ca         1 5QF       0.548300
      6 C6          11.4050    18.7170     9.8840 ca         1 5QF      -0.119000
      7 C7          11.6240    18.4450    11.2560 cg         1 5QF       0.339000
      8 N8          11.7970    18.2160    12.3760 n1         1 5QF      -0.454000
      9 S9          14.0980    18.3600     9.5720 ss         1 5QF      -0.360300
     10 C10         15.0270    18.0050     8.0490 c3         1 5QF       0.059600
     11 C11         14.7300    16.6190     7.4690 c3         1 5QF      -0.026100
     12 C12         15.6180    16.3210     6.2880 ca         1 5QF      -0.053300
     13 C13         16.8180    15.6390     6.4540 ca         1 5QF      -0.132000
     14 C14         17.6430    15.3940     5.3590 ca         1 5QF      -0.089000
     15 C15         17.2910    15.8350     4.0950 ca         1 5QF       0.070100
     16 C16         16.0880    16.5430     3.9150 ca         1 5QF       0.115100
     17 C17         15.2610    16.7700     5.0130 ca         1 5QF      -0.185000
     18 O18         15.8220    16.9680     2.6530 os         1 5QF      -0.337100
     19 O19         18.1420    15.6200     3.0350 os         1 5QF      -0.355100
     20 C20         14.5850    17.6390     2.4160 c3         1 5QF       0.143900
     21 C21         17.7120    14.5990     2.1220 c3         1 5QF       0.149900
     22 N22         10.9800    19.4580     5.8600 nh         1 5QF      -0.786300
     23 C23          9.9450    18.8750     5.0010 c6         1 5QF       0.180300
     24 C24          9.6170    19.8370     3.8620 c6         1 5QF       0.158800
     25 N25         10.7860    20.2130     3.0680 n3         1 5QF      -0.725600
     26 C26         11.8500    20.6990     3.9500 c6         1 5QF       0.158800
     27 C27         12.1960    19.7530     5.1040 c6         1 5QF       0.180300
     28 C28         11.2180    19.1900     2.1160 c3         1 5QF       0.132800
     29 C29         11.9420    19.8320     0.9320 c3         1 5QF       0.151600
     30 O30         12.4480    18.8810     0.0030 os         1 5QF      -0.465000
     31 C31         11.4470    18.2700    -0.7980 c3         1 5QF       0.141900
     32 C32          9.0080    19.2620    10.4100 c6         1 5QF      -0.068100
     33 C33          7.6400    19.4810     9.7610 c6         1 5QF       0.178000
     34 O34          7.8260    20.3870     8.6500 os         1 5QF      -0.454000
     35 C35          8.6050    19.8500     7.5960 c6         1 5QF       0.219900
     36 C36          6.7030    20.2050    10.7140 c3         1 5QF      -0.099600
     37 C37          7.0230    18.1570     9.3050 c3         1 5QF      -0.099600
     38 H1          16.0700    18.0800     8.3570 h1         1 5QF       0.082700
     39 H2          14.8210    18.7920     7.3270 h1         1 5QF       0.082700
     40 H3          13.6810    16.5790     7.1720 hc         1 5QF       0.059200
     41 H4          14.8850    15.8700     8.2460 hc         1 5QF       0.059200
     42 H5          17.1080    15.2880     7.4370 ha         1 5QF       0.118000
     43 H6          18.5740    14.8540     5.4730 ha         1 5QF       0.128000
     44 H7          14.3320    17.3070     4.8890 ha         1 5QF       0.116000
     45 H8          14.5630    17.8730     1.3550 h1         1 5QF       0.044033
     46 H9          13.7390    16.9940     2.6640 h1         1 5QF       0.044033
     47 H10         14.5190    18.5620     2.9970 h1         1 5QF       0.044033
     48 H11         18.4670    14.5440     1.3400 h1         1 5QF       0.038033
     49 H12         17.6450    13.6360     2.6370 h1         1 5QF       0.038033
     50 H13         16.7450    14.8500     1.6840 h1         1 5QF       0.038033
     51 H14          9.0540    18.6380     5.5680 h1         1 5QF       0.052450
     52 H15         10.3280    17.9300     4.5940 h1         1 5QF       0.052450
     53 H16          9.1860    20.7470     4.2920 h1         1 5QF       0.064200
     54 H17          8.8700    19.3890     3.2070 h1         1 5QF       0.064200
     55 H19         12.7500    20.8890     3.3670 h1         1 5QF       0.064200
     56 H20         11.5250    21.6530     4.3770 h1         1 5QF       0.064200
     57 H21         12.6460    18.8270     4.7300 h1         1 5QF       0.052450
     58 H22         12.9200    20.2280     5.7600 h1         1 5QF       0.052450
     59 H23         10.3260    18.6760     1.7560 h1         1 5QF       0.036200
     60 H24         11.8670    18.4250     2.5610 h1         1 5QF       0.036200
     61 H25         12.8100    20.3940     1.2790 h1         1 5QF       0.054700
     62 H26         11.2630    20.5300     0.4270 h1         1 5QF       0.054700
     63 H27         11.9590    17.6710    -1.5500 h1         1 5QF       0.031700
     64 H28         10.7930    17.6170    -0.2120 h1         1 5QF       0.031700
     65 H29         10.8320    19.0280    -1.2980 h1         1 5QF       0.031700
     66 H30          8.9670    18.4060    11.0870 hc         1 5QF       0.074200
     67 H31          9.2560    20.1310    11.0280 hc         1 5QF       0.074200
     68 H32          8.7690    20.6660     6.8890 h1         1 5QF       0.052700
     69 H33          8.0270    19.0790     7.0780 h1         1 5QF       0.052700
     70 H34          6.5920    19.6340    11.6380 hc         1 5QF       0.046867
     71 H35          7.1030    21.1900    10.9590 hc         1 5QF       0.046867
     72 H36          5.7180    20.3260    10.2600 hc         1 5QF       0.046867
     73 H37          6.7460    17.5700    10.1810 hc         1 5QF       0.046867
     74 H38          6.1240    18.3440     8.7150 hc         1 5QF       0.046867
     75 H39          7.7160    17.5600     8.7120 hc         1 5QF       0.046867
@<TRIPOS>BOND
     1     1     2 ar  
     2     1     6 ar  
     3     1    32 1   
     4     2     3 ar  
     5     2    35 1   
     6     3     4 ar  
     7     3    22 1   
     8     4     5 ar  
     9     5     6 ar  
    10     5     9 1   
    11     6     7 1   
    12     7     8 3   
    13     9    10 1   
    14    10    11 1   
    15    10    38 1   
    16    10    39 1   
    17    11    12 1   
    18    11    40 1   
    19    11    41 1   
    20    12    13 ar  
    21    12    17 ar  
    22    13    14 ar  
    23    13    42 1   
    24    14    15 ar  
    25    14    43 1   
    26    15    16 ar  
    27    15    19 1   
    28    16    17 ar  
    29    16    18 1   
    30    17    44 1   
    31    18    20 1   
    32    19    21 1   
    33    20    45 1   
    34    20    46 1   
    35    20    47 1   
    36    21    48 1   
    37    21    49 1   
    38    21    50 1   
    39    22    23 1   
    40    22    27 1   
    41    23    24 1   
    42    23    51 1   
    43    23    52 1   
    44    24    25 1   
    45    24    53 1   
    46    24    54 1   
    47    25    26 1   
    48    25    28 1   
    49    26    27 1   
    50    26    55 1   
    51    26    56 1   
    52    27    57 1   
    53    27    58 1   
    54    28    29 1   
    55    28    59 1   
    56    28    60 1   
    57    29    30 1   
    58    29    61 1   
    59    29    62 1   
    60    30    31 1   
    61    31    63 1   
    62    31    64 1   
    63    31    65 1   
    64    32    33 1   
    65    32    66 1   
    66    32    67 1   
    67    33    34 1   
    68    33    36 1   
    69    33    37 1   
    70    34    35 1   
    71    35    68 1   
    72    35    69 1   
    73    36    70 1   
    74    36    71 1   
    75    36    72 1   
    76    37    73 1   
    77    37    74 1   
    78    37    75 1   
@<TRIPOS>SUBSTRUCTURE
     1 5QF         1 TEMP              0 ****  ****    0 ROOT
