@<TRIPOS>MOLECULE
5QF
   75    78     1     0     0
SMALL
No Charge or Current Charge


@<TRIPOS>ATOM
      1 C1          10.3700    19.3930     9.3990 ca         1 5QF       0.050700
      2 C2          10.0040    19.5900     8.0530 ca         1 5QF      -0.220300
      3 C3          11.0190    19.7410     7.0940 ca         1 5QF       0.655900
      4 N4          12.3220    19.7260     7.3860 nb         1 5QF      -0.774000
      5 C5          12.6780    19.5460     8.6680 ca         1 5QF       0.548300
      6 C6          11.7470    19.3830     9.7110 ca         1 5QF      -0.119000
      7 C7          12.2070    19.2130    11.0590 cg         1 5QF       0.339000
      8 N8          12.5630    19.0720    12.1610 n1         1 5QF      -0.454000
      9 S9          14.4440    19.5510     8.9840 ss         1 5QF      -0.360300
     10 C10         15.1520    18.6060     7.5570 c3         1 5QF       0.059600
     11 C11         14.6950    17.1330     7.5880 c3         1 5QF      -0.026100
     12 C12         15.3290    16.3120     6.4730 ca         1 5QF      -0.053300
     13 C13         16.3390    15.3820     6.7630 ca         1 5QF      -0.132000
     14 C14         16.9200    14.6270     5.7340 ca         1 5QF      -0.089000
     15 C15         16.5100    14.7820     4.3980 ca         1 5QF       0.070100
     16 C16         15.4830    15.7290     4.0900 ca         1 5QF       0.115100
     17 C17         14.9060    16.4820     5.1420 ca         1 5QF      -0.185000
     18 O18         15.0540    15.9080     2.7850 os         1 5QF      -0.337100
     19 O19         17.1650    13.9730     3.4760 os         1 5QF      -0.355100
     20 C20         14.0580    16.8770     2.4110 c3         1 5QF       0.143900
     21 C21         16.9060    13.9690     2.0600 c3         1 5QF       0.149900
     22 N22         10.7390    19.9220     5.7360 nh         1 5QF      -0.786300
     23 C23         10.3750    18.7370     4.9020 c6         1 5QF       0.180300
     24 C24          9.6450    19.1520     3.5810 c6         1 5QF       0.158800
     25 N25         10.4120    20.1580     2.7760 n3         1 5QF      -0.725600
     26 C26         10.6940    21.3510     3.6440 c6         1 5QF       0.158800
     27 C27         11.4530    20.9840     4.9620 c6         1 5QF       0.180300
     28 C28         11.6120    19.5740     2.1110 c3         1 5QF       0.132800
     29 C29         12.3490    20.5230     1.1240 c3         1 5QF       0.151600
     30 O30         13.4150    19.8150     0.4480 os         1 5QF      -0.465000
     31 C31         13.0060    18.9040    -0.5920 c3         1 5QF       0.141900
     32 C32          9.2890    19.2370    10.4810 c6         1 5QF      -0.068100
     33 C33          7.8780    18.9820     9.8960 c6         1 5QF       0.178000
     34 O34          7.6660    19.8530     8.7650 os         1 5QF      -0.454000
     35 C35          8.5330    19.6520     7.6240 c6         1 5QF       0.219900
     36 C36          6.7700    19.3430    10.9210 c3         1 5QF      -0.099600
     37 C37          7.6730    17.4990     9.4550 c3         1 5QF      -0.099600
     38 H1          16.2470    18.6460     7.6170 h1         1 5QF       0.082700
     39 H2          14.8440    19.0770     6.6140 h1         1 5QF       0.082700
     40 H3          13.6030    17.0870     7.5020 hc         1 5QF       0.059200
     41 H4          14.9440    16.7050     8.5670 hc         1 5QF       0.059200
     42 H5          16.6780    15.2410     7.7870 ha         1 5QF       0.118000
     43 H6          17.7010    13.9090     5.9730 ha         1 5QF       0.128000
     44 H7          14.1220    17.2080     4.9470 ha         1 5QF       0.116000
     45 H8          13.8850    16.8400     1.3290 h1         1 5QF       0.044033
     46 H9          13.1040    16.6720     2.9130 h1         1 5QF       0.044033
     47 H10         14.3850    17.8920     2.6690 h1         1 5QF       0.044033
     48 H11         17.5570    13.2420     1.5600 h1         1 5QF       0.038033
     49 H12         15.8660    13.6850     1.8520 h1         1 5QF       0.038033
     50 H13         17.1060    14.9550     1.6220 h1         1 5QF       0.038033
     51 H14          9.7190    18.0570     5.4640 h1         1 5QF       0.052450
     52 H15         11.2820    18.1690     4.6500 h1         1 5QF       0.052450
     53 H16          8.6640    19.5690     3.8540 h1         1 5QF       0.064200
     54 H17          9.4420    18.2500     2.9850 h1         1 5QF       0.064200
     55 H19         11.2640    22.1180     3.1010 h1         1 5QF       0.064200
     56 H20          9.7440    21.8270     3.9290 h1         1 5QF       0.064200
     57 H21         12.4700    20.6500     4.7120 h1         1 5QF       0.052450
     58 H22         11.5490    21.8950     5.5710 h1         1 5QF       0.052450
     59 H23         11.2950    18.6820     1.5570 h1         1 5QF       0.036200
     60 H24         12.3360    19.2390     2.8640 h1         1 5QF       0.036200
     61 H25         12.7700    21.3650     1.6870 h1         1 5QF       0.054700
     62 H26         11.6320    20.9320     0.4000 h1         1 5QF       0.054700
     63 H27         13.8870    18.4680    -1.0800 h1         1 5QF       0.031700
     64 H28         12.4040    18.0800    -0.1900 h1         1 5QF       0.031700
     65 H29         12.4170    19.4250    -1.3570 h1         1 5QF       0.031700
     66 H30          9.5440    18.4190    11.1690 hc         1 5QF       0.074200
     67 H31          9.2740    20.1520    11.0880 hc         1 5QF       0.074200
     68 H32          8.3810    20.4850     6.9220 h1         1 5QF       0.052700
     69 H33          8.2510    18.7250     7.1060 h1         1 5QF       0.052700
     70 H34          6.8610    18.7420    11.8340 hc         1 5QF       0.046867
     71 H35          6.8250    20.3990    11.2130 hc         1 5QF       0.046867
     72 H36          5.7700    19.1670    10.5060 hc         1 5QF       0.046867
     73 H37          7.6290    16.8330    10.3250 hc         1 5QF       0.046867
     74 H38          6.7370    17.3730     8.8970 hc         1 5QF       0.046867
     75 H39          8.4930    17.1380     8.8230 hc         1 5QF       0.046867
@<TRIPOS>BOND
     1     1     2 ar  
     2     1     6 ar  
     3     1    32 1   
     4     2     3 ar  
     5     2    35 1   
     6     3     4 ar  
     7     3    22 1   
     8     4     5 ar  
     9     5     6 ar  
    10     5     9 1   
    11     6     7 1   
    12     7     8 3   
    13     9    10 1   
    14    10    11 1   
    15    10    38 1   
    16    10    39 1   
    17    11    12 1   
    18    11    40 1   
    19    11    41 1   
    20    12    13 ar  
    21    12    17 ar  
    22    13    14 ar  
    23    13    42 1   
    24    14    15 ar  
    25    14    43 1   
    26    15    16 ar  
    27    15    19 1   
    28    16    17 ar  
    29    16    18 1   
    30    17    44 1   
    31    18    20 1   
    32    19    21 1   
    33    20    45 1   
    34    20    46 1   
    35    20    47 1   
    36    21    48 1   
    37    21    49 1   
    38    21    50 1   
    39    22    23 1   
    40    22    27 1   
    41    23    24 1   
    42    23    51 1   
    43    23    52 1   
    44    24    25 1   
    45    24    53 1   
    46    24    54 1   
    47    25    26 1   
    48    25    28 1   
    49    26    27 1   
    50    26    55 1   
    51    26    56 1   
    52    27    57 1   
    53    27    58 1   
    54    28    29 1   
    55    28    59 1   
    56    28    60 1   
    57    29    30 1   
    58    29    61 1   
    59    29    62 1   
    60    30    31 1   
    61    31    63 1   
    62    31    64 1   
    63    31    65 1   
    64    32    33 1   
    65    32    66 1   
    66    32    67 1   
    67    33    34 1   
    68    33    36 1   
    69    33    37 1   
    70    34    35 1   
    71    35    68 1   
    72    35    69 1   
    73    36    70 1   
    74    36    71 1   
    75    36    72 1   
    76    37    73 1   
    77    37    74 1   
    78    37    75 1   
@<TRIPOS>SUBSTRUCTURE
     1 5QF         1 TEMP              0 ****  ****    0 ROOT
