@<TRIPOS>MOLECULE
5QG
   56    59     1     0     0
SMALL
abcg2


@<TRIPOS>ATOM
      1 N1          -2.0320    -4.3580     0.0480 n1         1 5QG      -0.452000
      2 C1          -1.8350    -3.2200     0.0360 cg         1 5QG       0.338000
      3 C2          -1.5940    -1.8240     0.0210 ca         1 5QG      -0.113000
      4 C7          -0.2890    -1.3300    -0.0610 ca         1 5QG       0.540300
      5 N6          -0.0310    -0.0420    -0.0660 nb         1 5QG      -0.769000
      6 C5          -1.0230     0.8410     0.0070 ca         1 5QG       0.640900
      7 N17         -0.6650     2.1660    -0.0320 nh         1 5QG      -0.765300
      8 C22          0.6820     2.4990    -0.4710 c6         1 5QG       0.166800
      9 C21          0.7070     3.9500    -0.9170 c6         1 5QG       0.146600
     10 O20          0.2810     4.8280     0.1020 os         1 5QG      -0.444000
     11 C19         -1.0200     4.5070     0.5350 c6         1 5QG       0.146600
     12 C18         -1.1030     3.0750     1.0240 c6         1 5QG       0.166800
     13 C4          -2.3810     0.4450     0.0350 ca         1 5QG      -0.213300
     14 O8          -4.6870     0.8230    -0.5700 os         1 5QG      -0.445000
     15 C30         -5.1100    -0.3130     0.1800 c6         1 5QG       0.184000
     16 C6          -4.0690    -1.4160    -0.0100 c6         1 5QG      -0.071100
     17 C3          -2.6600    -0.9080     0.0440 ca         1 5QG       0.047700
     18 S8           1.0460    -2.4630    -0.1540 ss         1 5QG      -0.351300
     19 C9           2.4890    -1.3600    -0.1280 c3         1 5QG       0.058600
     20 C10          3.7470    -2.2260    -0.1330 c3         1 5QG      -0.025100
     21 C11          4.9730    -1.3550    -0.1000 ca         1 5QG      -0.083300
     22 C16          5.4910    -0.9060     1.1130 ca         1 5QG      -0.105000
     23 C15          6.6040    -0.0780     1.1470 ca         1 5QG      -0.109000
     24 C14          7.2150     0.3180    -0.0360 ca         1 5QG      -0.109000
     25 C13          6.7050    -0.1210    -1.2510 ca         1 5QG      -0.109000
     26 C12          5.5910    -0.9490    -1.2800 ca         1 5QG      -0.105000
     27 C17         -3.5170     1.4260    -0.0890 c6         1 5QG       0.220900
     28 C20         -6.4400    -0.7380    -0.4210 c3         1 5QG      -0.101100
     29 C23         -5.2930     0.0120     1.6630 c3         1 5QG      -0.101100
     30 H1           1.4180     2.3310     0.3260 h1         1 5QG       0.056700
     31 H2           0.9650     1.8690    -1.3140 h1         1 5QG       0.056700
     32 H3           1.7250     4.2320    -1.1860 h1         1 5QG       0.054950
     33 H4           0.0750     4.0630    -1.8090 h1         1 5QG       0.054950
     34 H5          -1.2720     5.1860     1.3510 h1         1 5QG       0.054950
     35 H6          -1.7500     4.6610    -0.2730 h1         1 5QG       0.054950
     36 H7          -2.1220     2.8660     1.3380 h1         1 5QG       0.056700
     37 H8          -0.4640     2.9470     1.9070 h1         1 5QG       0.056700
     38 H9          -4.2130    -2.2000     0.7390 hc         1 5QG       0.074200
     39 H10         -4.2140    -1.8960    -0.9840 hc         1 5QG       0.074200
     40 H11          2.4600    -0.7060    -0.9990 h1         1 5QG       0.077200
     41 H12          2.4460    -0.7390     0.7660 h1         1 5QG       0.077200
     42 H13          3.7390    -2.8920     0.7320 hc         1 5QG       0.060200
     43 H14          3.7610    -2.8560    -1.0250 hc         1 5QG       0.060200
     44 H15          5.0220    -1.2130     2.0410 ha         1 5QG       0.112000
     45 H16          6.9970     0.2550     2.0990 ha         1 5QG       0.113000
     46 H17          8.0850     0.9610    -0.0100 ha         1 5QG       0.113000
     47 H18          7.1770     0.1770    -2.1780 ha         1 5QG       0.113000
     48 H19          5.2010    -1.2890    -2.2320 ha         1 5QG       0.112000
     49 H20         -3.7160     1.9260     0.8670 h1         1 5QG       0.054700
     50 H21         -3.2440     2.2110    -0.8010 h1         1 5QG       0.054700
     51 H22         -6.3440    -0.9370    -1.4900 hc         1 5QG       0.045700
     52 H23         -6.7950    -1.6490     0.0600 hc         1 5QG       0.045700
     53 H24         -7.1970     0.0340    -0.2790 hc         1 5QG       0.045700
     54 H25         -5.9610     0.8640     1.7960 hc         1 5QG       0.045700
     55 H26         -5.7380    -0.8430     2.1710 hc         1 5QG       0.045700
     56 H27         -4.3530     0.2310     2.1720 hc         1 5QG       0.045700
@<TRIPOS>BOND
     1     1     2 3   
     2     2     3 1   
     3     3     4 ar  
     4     3    17 ar  
     5     4     5 ar  
     6     4    18 1   
     7     5     6 ar  
     8     6     7 1   
     9     6    13 ar  
    10     7     8 1   
    11     7    12 1   
    12     8     9 1   
    13     8    30 1   
    14     8    31 1   
    15     9    10 1   
    16     9    32 1   
    17     9    33 1   
    18    10    11 1   
    19    11    12 1   
    20    11    34 1   
    21    11    35 1   
    22    12    36 1   
    23    12    37 1   
    24    13    17 ar  
    25    13    27 1   
    26    14    15 1   
    27    14    27 1   
    28    15    16 1   
    29    15    28 1   
    30    15    29 1   
    31    16    17 1   
    32    16    38 1   
    33    16    39 1   
    34    18    19 1   
    35    19    20 1   
    36    19    40 1   
    37    19    41 1   
    38    20    21 1   
    39    20    42 1   
    40    20    43 1   
    41    21    22 ar  
    42    21    26 ar  
    43    22    23 ar  
    44    22    44 1   
    45    23    24 ar  
    46    23    45 1   
    47    24    25 ar  
    48    24    46 1   
    49    25    26 ar  
    50    25    47 1   
    51    26    48 1   
    52    27    49 1   
    53    27    50 1   
    54    28    51 1   
    55    28    52 1   
    56    28    53 1   
    57    29    54 1   
    58    29    55 1   
    59    29    56 1   
@<TRIPOS>SUBSTRUCTURE
     1 5QG         1 TEMP              0 ****  ****    0 ROOT
