@<TRIPOS>MOLECULE
5QH
   54    57     1     0     0
SMALL
No Charge or Current Charge


@<TRIPOS>ATOM
      1 CAU         23.3170   -44.4560    -9.5420 c6         1 5QH       0.172800
      2 CAV         23.6470   -42.9460    -9.4920 c6         1 5QH      -0.029100
      3 CAW         22.8090   -42.1770    -8.4680 ca         1 5QH      -0.066300
      4 CBC         23.1820   -40.8730    -8.0910 ca         1 5QH      -0.109000
      5 CBB         22.4070   -40.1540    -7.1660 ca         1 5QH      -0.108000
      6 CBA         21.2530   -40.7360    -6.6160 ca         1 5QH      -0.109000
      7 CAZ         20.8740   -42.0360    -6.9920 ca         1 5QH      -0.105000
      8 CAX         21.6450   -42.7610    -7.9210 ca         1 5QH      -0.077300
      9 CAY         21.2300   -44.1860    -8.3080 c6         1 5QH       0.208100
     10 NAT         21.8500   -44.6850    -9.5720 n3         1 5QH      -0.740600
     11 CAS         21.5050   -46.1070    -9.8670 c3         1 5QH       0.125800
     12 CAB         20.0080   -46.3040   -10.2230 c3         1 5QH       0.147300
     13 OAA         19.6320   -45.1620   -10.9980 oh         1 5QH      -0.667000
     14 CAC         19.7190   -47.6150   -11.0010 c3         1 5QH       0.100000
     15 NAD         20.1650   -48.8290   -10.2980 ns         1 5QH      -0.508900
     16 CAE         19.5970   -49.3230    -9.1430 c          1 5QH       0.607700
     17 OAF         18.6280   -48.7780    -8.6340 o          1 5QH      -0.600100
     18 CAG         20.2290   -50.5640    -8.5450 ca         1 5QH      -0.156600
     19 CAH         21.3770   -51.1760    -9.1080 ca         1 5QH      -0.053000
     20 CAL         19.6620   -51.1330    -7.3850 ca         1 5QH      -0.046000
     21 CAK         20.2230   -52.2810    -6.8070 ca         1 5QH      -0.124000
     22 CAJ         21.3580   -52.8780    -7.3740 ca         1 5QH      -0.076000
     23 CAI         21.9670   -52.3380    -8.5360 cp         1 5QH      -0.154500
     24 CAM         23.1890   -52.9760    -9.1460 cp         1 5QH       0.404500
     25 NAN         23.4070   -52.7400   -10.4630 nb         1 5QH      -0.679000
     26 CAO         24.4870   -53.2910   -11.0620 ca         1 5QH       0.341900
     27 CAP         25.4080   -54.0990   -10.3760 ca         1 5QH      -0.163000
     28 CAQ         25.2110   -54.3470    -9.0100 ca         1 5QH      -0.070000
     29 CAR         24.0870   -53.7760    -8.3920 ca         1 5QH      -0.151000
     30 H1          23.7980   -44.8890   -10.4320 h1         1 5QH       0.036200
     31 H2          23.7580   -44.9510    -8.6640 h1         1 5QH       0.036200
     32 H3          24.7170   -42.8150    -9.2810 hc         1 5QH       0.056200
     33 H4          23.4740   -42.5120   -10.4850 hc         1 5QH       0.056200
     34 H5          24.0730   -40.4160    -8.5170 ha         1 5QH       0.110000
     35 H6          22.6990   -39.1470    -6.8770 ha         1 5QH       0.113000
     36 H7          20.6520   -40.1800    -5.8990 ha         1 5QH       0.114000
     37 H8          19.9800   -42.4810    -6.5600 ha         1 5QH       0.112000
     38 H9          20.1330   -44.2130    -8.3850 h1         1 5QH       0.046200
     39 H10         21.5000   -44.8500    -7.4720 h1         1 5QH       0.046200
     40 H12         21.7630   -46.7550    -9.0180 h1         1 5QH       0.042200
     41 H13         22.0990   -46.4530   -10.7250 h1         1 5QH       0.042200
     42 H14         19.4340   -46.3160    -9.2870 h1         1 5QH       0.052700
     43 H15         20.3430   -44.5160   -10.7450 ho         1 5QH       0.472000
     44 H16         20.2220   -47.5740   -11.9760 h1         1 5QH       0.070200
     45 H17         18.6390   -47.6910   -11.1860 h1         1 5QH       0.070200
     46 H18         20.9500   -49.3420   -10.6780 hn         1 5QH       0.318500
     47 H19         21.8380   -50.7500    -9.9940 ha         1 5QH       0.127000
     48 H20         18.7810   -50.6880    -6.9270 ha         1 5QH       0.138000
     49 H21         19.7710   -52.7130    -5.9160 ha         1 5QH       0.121000
     50 H22         21.7530   -53.7780    -6.9090 ha         1 5QH       0.115000
     51 H23         24.6170   -53.0770   -12.1220 h4         1 5QH       0.019100
     52 H24         26.2620   -54.5170   -10.9010 ha         1 5QH       0.126000
     53 H25         25.9090   -54.9620    -8.4450 ha         1 5QH       0.121000
     54 H26         23.9230   -53.9400    -7.3320 ha         1 5QH       0.125000
@<TRIPOS>BOND
     1     1     2 1   
     2     1    10 1   
     3     1    30 1   
     4     1    31 1   
     5     2     3 1   
     6     2    32 1   
     7     2    33 1   
     8     3     4 ar  
     9     3     8 ar  
    10     4     5 ar  
    11     4    34 1   
    12     5     6 ar  
    13     5    35 1   
    14     6     7 ar  
    15     6    36 1   
    16     7     8 ar  
    17     7    37 1   
    18     8     9 1   
    19     9    10 1   
    20     9    38 1   
    21     9    39 1   
    22    10    11 1   
    23    11    12 1   
    24    11    40 1   
    25    11    41 1   
    26    12    13 1   
    27    12    14 1   
    28    12    42 1   
    29    13    43 1   
    30    14    15 1   
    31    14    44 1   
    32    14    45 1   
    33    15    16 1   
    34    15    46 1   
    35    16    17 2   
    36    16    18 1   
    37    18    19 ar  
    38    18    20 ar  
    39    19    23 ar  
    40    19    47 1   
    41    20    21 ar  
    42    20    48 1   
    43    21    22 ar  
    44    21    49 1   
    45    22    23 ar  
    46    22    50 1   
    47    23    24 1   
    48    24    25 ar  
    49    24    29 ar  
    50    25    26 ar  
    51    26    27 ar  
    52    26    51 1   
    53    27    28 ar  
    54    27    52 1   
    55    28    29 ar  
    56    28    53 1   
    57    29    54 1   
@<TRIPOS>SUBSTRUCTURE
     1 5QH         1 TEMP              0 ****  ****    0 ROOT
