@<TRIPOS>MOLECULE
5QH
   54    57     1     0     0
SMALL
abcg2


@<TRIPOS>ATOM
      1 CAU         22.8980   -44.5320   -10.6000 c6         1 5QH       0.172800
      2 CAV         23.1640   -43.0570   -10.3370 c6         1 5QH      -0.029100
      3 CAW         23.0290   -42.7090    -8.8760 ca         1 5QH      -0.066300
      4 CBC         23.5540   -41.5150    -8.3760 ca         1 5QH      -0.109000
      5 CBB         23.4190   -41.1770    -7.0360 ca         1 5QH      -0.108000
      6 CBA         22.7470   -42.0400    -6.1720 ca         1 5QH      -0.109000
      7 CAZ         22.2230   -43.2280    -6.6610 ca         1 5QH      -0.105000
      8 CAX         22.3580   -43.5720    -8.0080 ca         1 5QH      -0.077300
      9 CAY         21.8050   -44.8890    -8.4930 c6         1 5QH       0.208100
     10 NAT         21.6540   -44.9350    -9.9450 n3         1 5QH      -0.740600
     11 CAS         21.1610   -46.2310   -10.4030 c3         1 5QH       0.125800
     12 CAB         19.6620   -46.3570   -10.1360 c3         1 5QH       0.147300
     13 OAA         18.9990   -45.1900   -10.6170 oh         1 5QH      -0.667000
     14 CAC         19.0490   -47.5640   -10.8420 c3         1 5QH       0.100000
     15 NAD         19.5600   -48.8180   -10.3200 ns         1 5QH      -0.508900
     16 CAE         19.0290   -49.4450    -9.2510 c          1 5QH       0.607700
     17 OAF         18.0070   -49.0480    -8.6860 o          1 5QH      -0.600100
     18 CAG         19.7490   -50.6740    -8.7840 ca         1 5QH      -0.156600
     19 CAH         21.1290   -50.8130    -8.9110 ca         1 5QH      -0.053000
     20 CAL         19.0080   -51.6840    -8.1690 ca         1 5QH      -0.046000
     21 CAK         19.6460   -52.8280    -7.7100 ca         1 5QH      -0.124000
     22 CAJ         21.0240   -52.9610    -7.8360 ca         1 5QH      -0.076000
     23 CAI         21.7850   -51.9500    -8.4310 cp         1 5QH      -0.154500
     24 CAM         23.2580   -52.0600    -8.5540 cp         1 5QH       0.404500
     25 NAN         23.8390   -51.3790    -9.5540 nb         1 5QH      -0.679000
     26 CAO         25.1630   -51.4480    -9.6910 ca         1 5QH       0.341900
     27 CAP         25.9830   -52.1930    -8.8520 ca         1 5QH      -0.163000
     28 CAQ         25.3860   -52.8930    -7.8110 ca         1 5QH      -0.070000
     29 CAR         24.0100   -52.8260    -7.6580 ca         1 5QH      -0.151000
     30 H1          22.8010   -44.7090   -11.6710 h1         1 5QH       0.036200
     31 H2          23.7440   -45.1400   -10.2380 h1         1 5QH       0.036200
     32 H3          24.1620   -42.7910   -10.6940 hc         1 5QH       0.056200
     33 H4          22.4520   -42.4600   -10.9160 hc         1 5QH       0.056200
     34 H5          24.0770   -40.8460    -9.0510 ha         1 5QH       0.110000
     35 H6          23.8350   -40.2480    -6.6660 ha         1 5QH       0.113000
     36 H7          22.6320   -41.7850    -5.1260 ha         1 5QH       0.114000
     37 H8          21.6970   -43.9010    -5.9940 ha         1 5QH       0.112000
     38 H9          20.8370   -45.0650    -8.0240 h1         1 5QH       0.046200
     39 H10         22.4700   -45.7040    -8.1570 h1         1 5QH       0.046200
     40 H12         21.7010   -47.0680    -9.9360 h1         1 5QH       0.042200
     41 H13         21.3230   -46.2870   -11.4820 h1         1 5QH       0.042200
     42 H14         19.4820   -46.4660    -9.0600 h1         1 5QH       0.052700
     43 H15         19.6520   -44.4760   -10.5070 ho         1 5QH       0.472000
     44 H16         19.2720   -47.5180   -11.9080 h1         1 5QH       0.070200
     45 H17         17.9680   -47.5420   -10.7120 h1         1 5QH       0.070200
     46 H18         20.3650   -49.2230   -10.7680 hn         1 5QH       0.318500
     47 H19         21.7250   -50.0280    -9.3530 ha         1 5QH       0.127000
     48 H20         17.9380   -51.5680    -8.0640 ha         1 5QH       0.138000
     49 H21         19.0700   -53.6230    -7.2550 ha         1 5QH       0.121000
     50 H22         21.5040   -53.8630    -7.4810 ha         1 5QH       0.115000
     51 H23         25.5900   -50.8840   -10.5140 h4         1 5QH       0.019100
     52 H24         27.0520   -52.2150    -9.0100 ha         1 5QH       0.126000
     53 H25         25.9840   -53.4770    -7.1230 ha         1 5QH       0.121000
     54 H26         23.5290   -53.3470    -6.8420 ha         1 5QH       0.125000
@<TRIPOS>BOND
     1     1     2 1   
     2     1    10 1   
     3     1    30 1   
     4     1    31 1   
     5     2     3 1   
     6     2    32 1   
     7     2    33 1   
     8     3     4 ar  
     9     3     8 ar  
    10     4     5 ar  
    11     4    34 1   
    12     5     6 ar  
    13     5    35 1   
    14     6     7 ar  
    15     6    36 1   
    16     7     8 ar  
    17     7    37 1   
    18     8     9 1   
    19     9    10 1   
    20     9    38 1   
    21     9    39 1   
    22    10    11 1   
    23    11    12 1   
    24    11    40 1   
    25    11    41 1   
    26    12    13 1   
    27    12    14 1   
    28    12    42 1   
    29    13    43 1   
    30    14    15 1   
    31    14    44 1   
    32    14    45 1   
    33    15    16 1   
    34    15    46 1   
    35    16    17 2   
    36    16    18 1   
    37    18    19 ar  
    38    18    20 ar  
    39    19    23 ar  
    40    19    47 1   
    41    20    21 ar  
    42    20    48 1   
    43    21    22 ar  
    44    21    49 1   
    45    22    23 ar  
    46    22    50 1   
    47    23    24 1   
    48    24    25 ar  
    49    24    29 ar  
    50    25    26 ar  
    51    26    27 ar  
    52    26    51 1   
    53    27    28 ar  
    54    27    52 1   
    55    28    29 ar  
    56    28    53 1   
    57    29    54 1   
@<TRIPOS>SUBSTRUCTURE
     1 5QH         1 TEMP              0 ****  ****    0 ROOT
