@<TRIPOS>MOLECULE
5QI
   43    44     1     0     0
SMALL
No Charge or Current Charge


@<TRIPOS>ATOM
      1 C13        -31.6070    35.3610    34.6830 c3         1 5QI      -0.107400
      2 C16        -29.6670    34.5760    33.1610 c3         1 5QI      -0.088100
      3 C15        -30.7070    36.8740    32.8330 c3         1 5QI      -0.088100
      4 C11        -33.0000    33.2350    34.1660 c          1 5QI       0.620100
      5 C12        -32.0320    33.9510    35.1820 c3         1 5QI       0.084500
      6 C1         -33.8170    29.3310    30.6380 ca         1 5QI      -0.155500
      7 C2         -32.6460    29.1050    31.3870 ca         1 5QI      -0.035000
      8 C3         -32.2210    30.0360    32.3460 ca         1 5QI      -0.192000
      9 C4         -32.9590    31.2040    32.5900 ca         1 5QI       0.026000
     10 C5         -34.1340    31.4350    31.8460 ca         1 5QI      -0.209000
     11 C6         -34.5680    30.5050    30.8740 ca         1 5QI       0.184100
     12 C7         -34.2200    28.3310    29.6420 cc         1 5QI       0.166500
     13 N1         -32.4600    32.1000    33.5740 ns         1 5QI      -0.140000
     14 O1         -35.7370    30.6940    30.1620 os         1 5QI      -0.400100
     15 C8         -36.5150    31.9010    30.2350 c3         1 5QI       0.400300
     16 O2         -33.9230    27.0160    29.7720 os         1 5QI      -0.272000
     17 C9         -34.4140    26.4760    28.6160 cc         1 5QI       0.431900
     18 N2         -34.9570    27.3590    27.7790 nd         1 5QI      -0.677000
     19 C10        -34.8250    28.5720    28.4350 cd         1 5QI       0.259900
     20 O3         -34.1360    33.6510    33.9500 o          1 5QI      -0.575100
     21 C14        -30.9660    35.4120    33.2650 c3         1 5QI      -0.060700
     22 N3         -32.5500    34.0650    36.5870 n8         1 5QI      -0.982200
     23 F1         -37.6550    31.7620    29.5210 f          1 5QI      -0.110000
     24 F2         -35.8450    32.9390    29.6820 f          1 5QI      -0.110000
     25 H10        -30.9010    35.7970    35.4010 hc         1 5QI       0.052200
     26 H9         -32.4920    36.0110    34.6870 hc         1 5QI       0.052200
     27 H16        -29.8610    33.5120    33.3340 hc         1 5QI       0.034533
     28 H17        -29.2260    34.6710    32.1610 hc         1 5QI       0.034533
     29 H15        -28.9250    34.9160    33.8940 hc         1 5QI       0.034533
     30 H12        -31.6370    37.4550    32.8500 hc         1 5QI       0.034533
     31 H14        -29.9870    37.3590    33.5050 hc         1 5QI       0.034533
     32 H13        -30.3050    36.9130    31.8140 hc         1 5QI       0.034533
     33 H8         -31.1240    33.3350    35.2400 h1         1 5QI       0.063700
     34 H2         -31.3090    29.8410    32.9070 ha         1 5QI       0.118000
     35 H3         -34.7080    32.3350    32.0220 ha         1 5QI       0.165000
     36 H4         -31.5290    31.8700    33.8950 hn         1 5QI       0.155000
     37 H5         -36.7750    32.1440    31.2700 h3         1 5QI       0.071700
     38 H6         -34.3190    25.4060    28.4700 h5         1 5QI       0.081100
     39 H7         -35.1500    29.5100    28.0020 h4         1 5QI       0.063100
     40 H11        -31.6830    34.9970    32.5450 hc         1 5QI       0.054700
     41 H20        -31.9010    34.6310    37.1480 hn         1 5QI       0.407000
     42 H18        -33.4140    34.6230    36.5850 hn         1 5QI       0.407000
     43 H1         -32.0540    28.2070    31.2200 ha         1 5QI       0.132000
@<TRIPOS>BOND
     1     1     5 1   
     2     1    21 1   
     3     1    25 1   
     4     1    26 1   
     5     2    21 1   
     6     2    27 1   
     7     2    28 1   
     8     2    29 1   
     9     3    21 1   
    10     3    30 1   
    11     3    31 1   
    12     3    32 1   
    13     4     5 1   
    14     4    13 1   
    15     4    20 2   
    16     5    22 1   
    17     5    33 1   
    18     6     7 ar  
    19     6    11 ar  
    20     6    12 1   
    21     7     8 ar  
    22     7    43 1   
    23     8     9 ar  
    24     8    34 1   
    25     9    10 ar  
    26     9    13 1   
    27    10    11 ar  
    28    10    35 1   
    29    11    14 1   
    30    12    16 1   
    31    12    19 2   
    32    13    36 1   
    33    14    15 1   
    34    15    23 1   
    35    15    24 1   
    36    15    37 1   
    37    16    17 1   
    38    17    18 2   
    39    17    38 1   
    40    18    19 1   
    41    19    39 1   
    42    21    40 1   
    43    22    41 1   
    44    22    42 1   
@<TRIPOS>SUBSTRUCTURE
     1 5QI         1 TEMP              0 ****  ****    0 ROOT
