@<TRIPOS>MOLECULE
5QI
   43    44     1     0     0
SMALL
bcc


@<TRIPOS>ATOM
      1 C13        -31.6270    35.3480    34.5160 c3         1 5QI      -0.107400
      2 C16        -29.4200    34.5570    33.5360 c3         1 5QI      -0.088100
      3 C15        -30.4510    36.7120    32.7830 c3         1 5QI      -0.088100
      4 C11        -32.9730    33.3090    33.9890 c          1 5QI       0.687100
      5 C12        -32.1330    34.0040    35.0530 c3         1 5QI       0.084500
      6 C1         -33.8290    29.4880    30.5460 ca         1 5QI      -0.155500
      7 C2         -32.6670    29.2570    31.2870 ca         1 5QI      -0.053000
      8 C3         -32.2280    30.1420    32.2480 ca         1 5QI      -0.210000
      9 C4         -32.9370    31.3160    32.5040 ca         1 5QI       0.118600
     10 C5         -34.0860    31.5870    31.7620 ca         1 5QI      -0.227000
     11 C6         -34.5170    30.6760    30.8120 ca         1 5QI       0.184100
     12 C7         -34.2900    28.5290    29.5590 cc         1 5QI       0.210900
     13 N1         -32.4330    32.1690    33.4830 ns         1 5QI      -0.466100
     14 O1         -35.6310    30.9060    30.0560 os         1 5QI      -0.376900
     15 C8         -36.6570    31.6520    30.5500 c3         1 5QI       0.619700
     16 O2         -33.5220    27.4200    29.3850 os         1 5QI      -0.360800
     17 C9         -34.1350    26.6910    28.4510 cc         1 5QI       0.476300
     18 N2         -35.2180    27.2200    28.0080 nd         1 5QI      -0.677000
     19 C10        -35.3420    28.4010    28.7040 cd         1 5QI       0.259900
     20 O3         -34.0440    33.7680    33.6350 o          1 5QI      -0.575100
     21 C14        -30.7310    35.2940    33.2760 c3         1 5QI      -0.060700
     22 N3         -32.9610    34.1150    36.2470 n8         1 5QI      -0.871800
     23 F1         -37.7520    31.2820    29.8700 f          1 5QI      -0.231300
     24 F2         -36.4580    32.9610    30.2720 f          1 5QI      -0.231300
     25 H10        -31.0790    35.8420    35.3260 hc         1 5QI       0.052200
     26 H9         -32.4980    35.9770    34.3040 hc         1 5QI       0.052200
     27 H16        -29.5680    33.5100    33.8010 hc         1 5QI       0.034533
     28 H17        -28.7830    34.5780    32.6510 hc         1 5QI       0.034533
     29 H15        -28.8670    35.0290    34.3520 hc         1 5QI       0.034533
     30 H12        -31.3750    37.2430    32.5500 hc         1 5QI       0.034533
     31 H14        -29.9180    37.2900    33.5420 hc         1 5QI       0.034533
     32 H13        -29.8370    36.7020    31.8820 hc         1 5QI       0.034533
     33 H8         -31.2770    33.3770    35.3190 h1         1 5QI       0.063700
     34 H2         -31.3260    29.9180    32.8030 ha         1 5QI       0.136000
     35 H3         -34.6140    32.5130    31.9210 ha         1 5QI       0.183000
     36 H4         -31.5600    31.8720    33.8930 hn         1 5QI       0.321500
     37 H5         -36.8160    31.5320    31.6240 h3         1 5QI       0.071700
     38 H6         -33.6760    25.7570    28.1640 h5         1 5QI       0.081100
     39 H7         -36.1720    29.0630    28.5370 h4         1 5QI       0.063100
     40 H11        -31.2660    34.7710    32.4740 hc         1 5QI       0.054700
     41 H20        -32.3980    34.4960    36.9970 hn         1 5QI       0.351800
     42 H18        -33.6970    34.7920    36.0820 hn         1 5QI       0.351800
     43 H1         -32.0890    28.3580    31.1200 ha         1 5QI       0.150000
@<TRIPOS>BOND
     1     1     5 1   
     2     1    21 1   
     3     1    25 1   
     4     1    26 1   
     5     2    21 1   
     6     2    27 1   
     7     2    28 1   
     8     2    29 1   
     9     3    21 1   
    10     3    30 1   
    11     3    31 1   
    12     3    32 1   
    13     4     5 1   
    14     4    13 1   
    15     4    20 2   
    16     5    22 1   
    17     5    33 1   
    18     6     7 ar  
    19     6    11 ar  
    20     6    12 1   
    21     7     8 ar  
    22     7    43 1   
    23     8     9 ar  
    24     8    34 1   
    25     9    10 ar  
    26     9    13 1   
    27    10    11 ar  
    28    10    35 1   
    29    11    14 1   
    30    12    16 1   
    31    12    19 2   
    32    13    36 1   
    33    14    15 1   
    34    15    23 1   
    35    15    24 1   
    36    15    37 1   
    37    16    17 1   
    38    17    18 2   
    39    17    38 1   
    40    18    19 1   
    41    19    39 1   
    42    21    40 1   
    43    22    41 1   
    44    22    42 1   
@<TRIPOS>SUBSTRUCTURE
     1 5QI         1 TEMP              0 ****  ****    0 ROOT
