@<TRIPOS>MOLECULE
5QJ
   58    62     1     0     0
SMALL
abcg2


@<TRIPOS>ATOM
      1 CAV         23.0710   -45.5130   -10.9310 c6         1 5QJ       0.169800
      2 CAW         23.9360   -44.5010   -10.1930 c6         1 5QJ      -0.030100
      3 CAX         24.3910   -45.0140    -8.8500 ca         1 5QJ      -0.068300
      4 CBD         25.4650   -44.4220    -8.1800 ca         1 5QJ      -0.111000
      5 CBC         25.8740   -44.8820    -6.9350 ca         1 5QJ      -0.109000
      6 CBB         25.2000   -45.9440    -6.3350 ca         1 5QJ      -0.112000
      7 CBA         24.1290   -46.5340    -6.9920 ca         1 5QJ      -0.108000
      8 CAY         23.7230   -46.0830    -8.2490 ca         1 5QJ      -0.084300
      9 CAZ         22.6020   -46.7930    -8.9610 c6         1 5QJ       0.206100
     10 NAU         22.0180   -46.0110   -10.0480 n3         1 5QJ      -0.735600
     11 CAT         20.9970   -46.7780   -10.7620 c3         1 5QJ       0.125800
     12 CAR         19.7050   -46.8010    -9.9540 c3         1 5QJ       0.165300
     13 OAS         19.2650   -45.4550    -9.7390 oh         1 5QJ      -0.672000
     14 CAQ         18.5500   -47.5220   -10.6370 c3         1 5QJ       0.184800
     15 NAP         18.7810   -48.9380   -10.9780 nu         1 5QJ      -0.882100
     16 CAO         18.9830   -49.8910    -9.9720 ca         1 5QJ       0.546900
     17 CBE         20.1050   -49.8430    -9.1410 ca         1 5QJ      -0.179000
     18 NAN         18.0850   -50.8820    -9.8870 nb         1 5QJ      -0.724000
     19 CAM         18.2720   -51.8150    -8.9460 ca         1 5QJ       0.362900
     20 CAL         19.3190   -51.8070    -8.0400 ca         1 5QJ      -0.179000
     21 CAK         20.2830   -50.7960    -8.1460 cp         1 5QJ       0.026000
     22 CAH         21.4620   -50.7190    -7.2570 cp         1 5QJ      -0.035000
     23 CAG         22.7000   -50.3450    -7.7800 ca         1 5QJ      -0.099000
     24 CAF         23.7590   -50.2140    -6.8930 ca         1 5QJ      -0.088200
     25 NAB         25.0800   -49.8590    -7.0760 na         1 5QJ      -0.187600
     26 CAA         25.7190   -49.5180    -8.3340 c3         1 5QJ       0.066900
     27 CAC         25.6560   -49.8620    -5.8400 cc         1 5QJ       0.425700
     28 NAD         24.8320   -50.2000    -4.8720 nd         1 5QJ      -0.575100
     29 CAE         23.6190   -50.4320    -5.5050 ca         1 5QJ       0.073400
     30 CAJ         22.3820   -50.8240    -4.9910 ca         1 5QJ      -0.050000
     31 CAI         21.3240   -50.9690    -5.8730 ca         1 5QJ      -0.117000
     32 H1          23.6960   -46.3440   -11.3010 h1         1 5QJ       0.036200
     33 H2          22.6050   -45.0440   -11.7980 h1         1 5QJ       0.036200
     34 H3          24.8020   -44.2370   -10.8050 hc         1 5QJ       0.057200
     35 H4          23.3600   -43.5810   -10.0490 hc         1 5QJ       0.057200
     36 H5          25.9870   -43.5950    -8.6480 ha         1 5QJ       0.111000
     37 H6          26.7120   -44.4150    -6.4330 ha         1 5QJ       0.114000
     38 H7          25.5070   -46.3090    -5.3630 ha         1 5QJ       0.118000
     39 H8          23.6010   -47.3600    -6.5310 ha         1 5QJ       0.121000
     40 H9          21.8300   -47.0500    -8.2360 h1         1 5QJ       0.041700
     41 H10         22.9900   -47.7490    -9.3570 h1         1 5QJ       0.041700
     42 H12         21.3370   -47.7980   -10.9890 h1         1 5QJ       0.053200
     43 H13         20.7930   -46.2800   -11.7120 h1         1 5QJ       0.053200
     44 H14         19.8830   -47.2600    -8.9790 h1         1 5QJ       0.041700
     45 H15         20.0770   -44.9570    -9.5500 ho         1 5QJ       0.470000
     46 H16         18.3360   -47.0090   -11.5760 h1         1 5QJ       0.055700
     47 H17         17.6690   -47.4130    -9.9920 h1         1 5QJ       0.055700
     48 H18         18.0180   -49.2540   -11.5650 hn         1 5QJ       0.455000
     49 H19         20.8460   -49.0760    -9.2790 ha         1 5QJ       0.125000
     50 H20         17.5350   -52.6110    -8.9140 h4         1 5QJ       0.019100
     51 H21         19.4030   -52.5880    -7.2970 ha         1 5QJ       0.128000
     52 H22         22.8270   -50.1680    -8.8390 ha         1 5QJ       0.120000
     53 H23         26.7780   -49.3550    -8.1530 h1         1 5QJ       0.054700
     54 H24         25.5980   -50.3330    -9.0470 h1         1 5QJ       0.054700
     55 H25         25.2820   -48.6090    -8.7480 h1         1 5QJ       0.054700
     56 H26         26.6980   -49.6060    -5.7140 h5         1 5QJ       0.062800
     57 H27         22.2510   -50.9980    -3.9300 ha         1 5QJ       0.133000
     58 H28         20.3510   -51.2500    -5.4910 ha         1 5QJ       0.119000
@<TRIPOS>BOND
     1     1     2 1   
     2     1    10 1   
     3     1    32 1   
     4     1    33 1   
     5     2     3 1   
     6     2    34 1   
     7     2    35 1   
     8     3     4 ar  
     9     3     8 ar  
    10     4     5 ar  
    11     4    36 1   
    12     5     6 ar  
    13     5    37 1   
    14     6     7 ar  
    15     6    38 1   
    16     7     8 ar  
    17     7    39 1   
    18     8     9 1   
    19     9    10 1   
    20     9    40 1   
    21     9    41 1   
    22    10    11 1   
    23    11    12 1   
    24    11    42 1   
    25    11    43 1   
    26    12    13 1   
    27    12    14 1   
    28    12    44 1   
    29    13    45 1   
    30    14    15 1   
    31    14    46 1   
    32    14    47 1   
    33    15    16 1   
    34    15    48 1   
    35    16    17 ar  
    36    16    18 ar  
    37    17    21 ar  
    38    17    49 1   
    39    18    19 ar  
    40    19    20 ar  
    41    19    50 1   
    42    20    21 ar  
    43    20    51 1   
    44    21    22 1   
    45    22    23 ar  
    46    22    31 ar  
    47    23    24 ar  
    48    23    52 1   
    49    24    25 1   
    50    24    29 ar  
    51    25    26 1   
    52    25    27 1   
    53    26    53 1   
    54    26    54 1   
    55    26    55 1   
    56    27    28 2   
    57    27    56 1   
    58    28    29 1   
    59    29    30 ar  
    60    30    31 ar  
    61    30    57 1   
    62    31    58 1   
@<TRIPOS>SUBSTRUCTURE
     1 5QJ         1 TEMP              0 ****  ****    0 ROOT
