@<TRIPOS>MOLECULE
5QJ
   58    62     1     0     0
SMALL
No Charge or Current Charge


@<TRIPOS>ATOM
      1 CAV         23.1300   -45.6600   -10.9740 c6         1 5QJ       0.169800
      2 CAW         24.1550   -44.7070   -10.3190 c6         1 5QJ      -0.030100
      3 CAX         24.5160   -45.1160    -8.8900 ca         1 5QJ      -0.068300
      4 CBD         25.6870   -44.6200    -8.2850 ca         1 5QJ      -0.111000
      5 CBC         26.0180   -44.9950    -6.9720 ca         1 5QJ      -0.109000
      6 CBB         25.1770   -45.8640    -6.2570 ca         1 5QJ      -0.112000
      7 CBA         24.0050   -46.3560    -6.8540 ca         1 5QJ      -0.108000
      8 CAY         23.6670   -45.9820    -8.1700 ca         1 5QJ      -0.084300
      9 CAZ         22.4090   -46.5680    -8.8200 c6         1 5QJ       0.206100
     10 NAU         21.9650   -45.9020   -10.0840 n3         1 5QJ      -0.735600
     11 CAT         20.8810   -46.6610   -10.7760 c3         1 5QJ       0.125800
     12 CAR         19.5520   -46.7300    -9.9750 c3         1 5QJ       0.165300
     13 OAS         19.1560   -45.3790    -9.7000 oh         1 5QJ      -0.672000
     14 CAQ         18.4170   -47.5110   -10.7060 c3         1 5QJ       0.184800
     15 NAP         18.6840   -48.9570   -10.9380 nu         1 5QJ      -0.882100
     16 CAO         18.9680   -49.8810    -9.9620 ca         1 5QJ       0.546900
     17 CBE         20.1170   -49.8510    -9.1620 ca         1 5QJ      -0.179000
     18 NAN         18.0510   -50.8450    -9.9100 nb         1 5QJ      -0.724000
     19 CAM         18.2320   -51.8160    -8.9850 ca         1 5QJ       0.362900
     20 CAL         19.3300   -51.8470    -8.1060 ca         1 5QJ      -0.179000
     21 CAK         20.3240   -50.8450    -8.1840 cp         1 5QJ       0.026000
     22 CAH         21.5160   -50.8030    -7.2790 cp         1 5QJ      -0.035000
     23 CAG         22.7570   -50.2760    -7.7340 ca         1 5QJ      -0.099000
     24 CAF         23.8240   -50.1890    -6.8290 ca         1 5QJ      -0.088200
     25 NAB         25.0910   -49.7110    -6.9870 na         1 5QJ      -0.187600
     26 CAA         25.6150   -49.1720    -8.2510 c3         1 5QJ       0.066900
     27 CAC         25.7410   -49.8450    -5.7580 cc         1 5QJ       0.425700
     28 NAD         24.9200   -50.3980    -4.8370 nd         1 5QJ      -0.575100
     29 CAE         23.7280   -50.6010    -5.5320 ca         1 5QJ       0.073400
     30 CAJ         22.5320   -51.1460    -5.0460 ca         1 5QJ      -0.050000
     31 CAI         21.4290   -51.2420    -5.9240 ca         1 5QJ      -0.117000
     32 H1          23.6260   -46.6130   -11.2130 h1         1 5QJ       0.036200
     33 H2          22.8020   -45.2190   -11.9270 h1         1 5QJ       0.036200
     34 H3          25.0590   -44.6640   -10.9410 hc         1 5QJ       0.057200
     35 H4          23.7410   -43.6910   -10.3030 hc         1 5QJ       0.057200
     36 H5          26.3410   -43.9460    -8.8330 ha         1 5QJ       0.111000
     37 H6          26.9250   -44.6120    -6.5090 ha         1 5QJ       0.114000
     38 H7          25.4350   -46.1580    -5.2410 ha         1 5QJ       0.118000
     39 H8          23.3630   -47.0360    -6.2990 ha         1 5QJ       0.121000
     40 H9          21.6010   -46.5440    -8.0750 h1         1 5QJ       0.041700
     41 H10         22.6210   -47.6270    -9.0210 h1         1 5QJ       0.041700
     42 H12         21.2200   -47.6800   -11.0060 h1         1 5QJ       0.053200
     43 H13         20.6590   -46.1870   -11.7430 h1         1 5QJ       0.053200
     44 H14         19.7330   -47.2320    -9.0180 h1         1 5QJ       0.041700
     45 H15         20.0160   -44.8990    -9.6340 ho         1 5QJ       0.470000
     46 H16         18.2250   -47.0190   -11.6700 h1         1 5QJ       0.055700
     47 H17         17.5010   -47.4120   -10.1080 h1         1 5QJ       0.055700
     48 H18         18.0310   -49.3820   -11.5920 hn         1 5QJ       0.455000
     49 H19         20.8440   -49.0650    -9.2900 ha         1 5QJ       0.125000
     50 H20         17.4710   -52.5940    -8.9440 h4         1 5QJ       0.019100
     51 H21         19.4120   -52.6570    -7.3880 ha         1 5QJ       0.128000
     52 H22         22.8820   -49.9480    -8.7620 ha         1 5QJ       0.120000
     53 H23         26.5420   -48.6170    -8.0630 h1         1 5QJ       0.054700
     54 H24         25.8210   -49.9970    -8.9450 h1         1 5QJ       0.054700
     55 H25         24.8810   -48.4940    -8.7040 h1         1 5QJ       0.054700
     56 H26         26.7690   -49.5380    -5.6060 h5         1 5QJ       0.062800
     57 H27         22.4530   -51.4730    -4.0120 ha         1 5QJ       0.133000
     58 H28         20.4910   -51.6380    -5.5420 ha         1 5QJ       0.119000
@<TRIPOS>BOND
     1     1     2 1   
     2     1    10 1   
     3     1    32 1   
     4     1    33 1   
     5     2     3 1   
     6     2    34 1   
     7     2    35 1   
     8     3     4 ar  
     9     3     8 ar  
    10     4     5 ar  
    11     4    36 1   
    12     5     6 ar  
    13     5    37 1   
    14     6     7 ar  
    15     6    38 1   
    16     7     8 ar  
    17     7    39 1   
    18     8     9 1   
    19     9    10 1   
    20     9    40 1   
    21     9    41 1   
    22    10    11 1   
    23    11    12 1   
    24    11    42 1   
    25    11    43 1   
    26    12    13 1   
    27    12    14 1   
    28    12    44 1   
    29    13    45 1   
    30    14    15 1   
    31    14    46 1   
    32    14    47 1   
    33    15    16 1   
    34    15    48 1   
    35    16    17 ar  
    36    16    18 ar  
    37    17    21 ar  
    38    17    49 1   
    39    18    19 ar  
    40    19    20 ar  
    41    19    50 1   
    42    20    21 ar  
    43    20    51 1   
    44    21    22 1   
    45    22    23 ar  
    46    22    31 ar  
    47    23    24 ar  
    48    23    52 1   
    49    24    25 1   
    50    24    29 ar  
    51    25    26 1   
    52    25    27 1   
    53    26    53 1   
    54    26    54 1   
    55    26    55 1   
    56    27    28 2   
    57    27    56 1   
    58    28    29 1   
    59    29    30 ar  
    60    30    31 ar  
    61    30    57 1   
    62    31    58 1   
@<TRIPOS>SUBSTRUCTURE
     1 5QJ         1 TEMP              0 ****  ****    0 ROOT
