@<TRIPOS>MOLECULE
5QK
   54    57     1     0     0
SMALL
No Charge or Current Charge


@<TRIPOS>ATOM
      1 CAU         22.7620   -45.5870   -10.3020 c6         1 5QK       0.161800
      2 CAV         22.9950   -44.0880   -10.0000 c6         1 5QK      -0.030100
      3 CAW         23.4110   -43.8200    -8.5520 ca         1 5QK      -0.064300
      4 CBC         23.9350   -42.5630    -8.1920 ca         1 5QK      -0.109000
      5 CBB         24.3010   -42.3040    -6.8600 ca         1 5QK      -0.107000
      6 CBA         24.1420   -43.3000    -5.8820 ca         1 5QK      -0.110000
      7 CAZ         23.6160   -44.5540    -6.2350 ca         1 5QK      -0.108000
      8 CAX         23.2440   -44.8180    -7.5680 ca         1 5QK      -0.079300
      9 CAY         22.6910   -46.1980    -7.9440 c6         1 5QK       0.214100
     10 NAT         21.9490   -46.2310    -9.2330 n3         1 5QK      -0.731600
     11 CAS         21.5060   -47.6140    -9.5740 c3         1 5QK       0.120800
     12 CAB         20.4530   -47.6540   -10.7120 c3         1 5QK       0.146300
     13 OAA         19.6270   -46.5020   -10.5260 oh         1 5QK      -0.666000
     14 CAC         19.5980   -48.9480   -10.7240 c3         1 5QK       0.101000
     15 NAD         20.4020   -50.1760   -10.7960 ns         1 5QK      -0.500900
     16 CAE         21.1410   -50.5800   -11.8890 c          1 5QK       0.564100
     17 OAF         21.1200   -49.9640   -12.9460 o          1 5QK      -0.614100
     18 CAG         21.9800   -51.8630   -11.6860 c3         1 5QK       0.073600
     19 OAH         22.2580   -52.1120   -10.2860 os         1 5QK      -0.342100
     20 CAI         23.0540   -51.2480    -9.5540 ca         1 5QK       0.132100
     21 CAJ         22.5790   -50.7350    -8.3170 ca         1 5QK       0.250000
     22 NAK         21.3330   -51.0540    -7.8660 nb         1 5QK      -0.664000
     23 CAL         20.9090   -50.5320    -6.6920 ca         1 5QK       0.349900
     24 CAM         21.6940   -49.6680    -5.9150 ca         1 5QK      -0.162000
     25 CAN         22.9760   -49.3210    -6.3650 ca         1 5QK      -0.062000
     26 CAO         23.4230   -49.8550    -7.5870 ca         1 5QK      -0.068000
     27 CAP         24.6940   -49.5030    -8.0790 ca         1 5QK      -0.106000
     28 CAQ         25.1420   -50.0130    -9.3060 ca         1 5QK      -0.082000
     29 CAR         24.3250   -50.8830   -10.0430 ca         1 5QK      -0.145000
     30 H1          22.2730   -45.6700   -11.2830 h1         1 5QK       0.039700
     31 H2          23.7370   -46.0920   -10.3870 h1         1 5QK       0.039700
     32 H3          23.7510   -43.6920   -10.6910 hc         1 5QK       0.058200
     33 H4          22.0690   -43.5370   -10.2070 hc         1 5QK       0.058200
     34 H5          24.0570   -41.7870    -8.9440 ha         1 5QK       0.112000
     35 H6          24.7070   -41.3330    -6.5870 ha         1 5QK       0.114000
     36 H7          24.4270   -43.1000    -4.8510 ha         1 5QK       0.113000
     37 H8          23.4980   -45.3220    -5.4740 ha         1 5QK       0.108000
     38 H9          22.0370   -46.5460    -7.1310 h1         1 5QK       0.040700
     39 H10         23.5410   -46.8940    -7.9870 h1         1 5QK       0.040700
     40 H12         21.0540   -48.0770    -8.6860 h1         1 5QK       0.043200
     41 H13         22.3660   -48.2360    -9.8570 h1         1 5QK       0.043200
     42 H14         20.9830   -47.5740   -11.6700 h1         1 5QK       0.050700
     43 H15         20.2130   -45.9380    -9.9570 ho         1 5QK       0.469000
     44 H16         18.9900   -48.9870    -9.8110 h1         1 5QK       0.069200
     45 H17         18.9150   -48.9220   -11.5820 h1         1 5QK       0.069200
     46 H18         20.5170   -50.7340    -9.9510 hn         1 5QK       0.353500
     47 H19         21.3960   -52.6920   -12.1020 h1         1 5QK       0.081700
     48 H20         22.9010   -51.7690   -12.2730 h1         1 5QK       0.081700
     49 H21         19.9090   -50.8160    -6.3680 h4         1 5QK       0.025100
     50 H22         21.3070   -49.2750    -4.9790 ha         1 5QK       0.129000
     51 H23         23.6010   -48.6480    -5.7830 ha         1 5QK       0.125000
     52 H24         25.3340   -48.8290    -7.5140 ha         1 5QK       0.123000
     53 H25         26.1250   -49.7380    -9.6830 ha         1 5QK       0.122000
     54 H26         24.6900   -51.2860   -10.9840 ha         1 5QK       0.128000
@<TRIPOS>BOND
     1     1     2 1   
     2     1    10 1   
     3     1    30 1   
     4     1    31 1   
     5     2     3 1   
     6     2    32 1   
     7     2    33 1   
     8     3     4 ar  
     9     3     8 ar  
    10     4     5 ar  
    11     4    34 1   
    12     5     6 ar  
    13     5    35 1   
    14     6     7 ar  
    15     6    36 1   
    16     7     8 ar  
    17     7    37 1   
    18     8     9 1   
    19     9    10 1   
    20     9    38 1   
    21     9    39 1   
    22    10    11 1   
    23    11    12 1   
    24    11    40 1   
    25    11    41 1   
    26    12    13 1   
    27    12    14 1   
    28    12    42 1   
    29    13    43 1   
    30    14    15 1   
    31    14    44 1   
    32    14    45 1   
    33    15    16 1   
    34    15    46 1   
    35    16    17 2   
    36    16    18 1   
    37    18    19 1   
    38    18    47 1   
    39    18    48 1   
    40    19    20 1   
    41    20    21 ar  
    42    20    29 ar  
    43    21    22 ar  
    44    21    26 ar  
    45    22    23 ar  
    46    23    24 ar  
    47    23    49 1   
    48    24    25 ar  
    49    24    50 1   
    50    25    26 ar  
    51    25    51 1   
    52    26    27 ar  
    53    27    28 ar  
    54    27    52 1   
    55    28    29 ar  
    56    28    53 1   
    57    29    54 1   
@<TRIPOS>SUBSTRUCTURE
     1 5QK         1 TEMP              0 ****  ****    0 ROOT
