@<TRIPOS>MOLECULE
5QK
   54    57     1     0     0
SMALL
abcg2


@<TRIPOS>ATOM
      1 CAU         22.9950   -46.0350    -9.9040 c6         1 5QK       0.161800
      2 CAV         23.3940   -44.5670    -9.9220 c6         1 5QK      -0.030100
      3 CAW         23.4530   -43.9830    -8.5330 ca         1 5QK      -0.064300
      4 CBC         24.1240   -42.7820    -8.2910 ca         1 5QK      -0.109000
      5 CBB         24.1720   -42.2300    -7.0180 ca         1 5QK      -0.107000
      6 CBA         23.5410   -42.8820    -5.9600 ca         1 5QK      -0.110000
      7 CAZ         22.8730   -44.0760    -6.1920 ca         1 5QK      -0.108000
      8 CAX         22.8230   -44.6360    -7.4700 ca         1 5QK      -0.079300
      9 CAY         22.1220   -45.9560    -7.6730 c6         1 5QK       0.214100
     10 NAT         21.8030   -46.2150    -9.0750 n3         1 5QK      -0.731600
     11 CAS         21.1970   -47.5330    -9.2470 c3         1 5QK       0.120800
     12 CAB         20.3410   -47.5690   -10.5080 c3         1 5QK       0.146300
     13 OAA         19.4330   -46.4700   -10.4940 oh         1 5QK      -0.666000
     14 CAC         19.5180   -48.8510   -10.6160 c3         1 5QK       0.101000
     15 NAD         20.3600   -50.0290   -10.7230 ns         1 5QK      -0.500900
     16 CAE         20.9190   -50.4220   -11.8730 c          1 5QK       0.564100
     17 OAF         20.6970   -49.9100   -12.9720 o          1 5QK      -0.614100
     18 CAG         21.8780   -51.6050   -11.7880 c3         1 5QK       0.073600
     19 OAH         22.2200   -51.9680   -10.4530 os         1 5QK      -0.342100
     20 CAI         23.1880   -51.2340    -9.8150 ca         1 5QK       0.132100
     21 CAJ         22.8630   -50.7170    -8.5280 ca         1 5QK       0.250000
     22 NAK         21.5970   -50.8690    -8.0550 nb         1 5QK      -0.664000
     23 CAL         21.3050   -50.3660    -6.8750 ca         1 5QK       0.349900
     24 CAM         22.2350   -49.6810    -6.0650 ca         1 5QK      -0.162000
     25 CAN         23.5100   -49.5050    -6.5320 ca         1 5QK      -0.062000
     26 CAO         23.8670   -50.0160    -7.8010 ca         1 5QK      -0.068000
     27 CAP         25.1470   -49.8280    -8.3710 ca         1 5QK      -0.106000
     28 CAQ         25.4170   -50.3200    -9.6220 ca         1 5QK      -0.082000
     29 CAR         24.4380   -51.0310   -10.3460 ca         1 5QK      -0.145000
     30 H1          22.7820   -46.3730   -10.9170 h1         1 5QK       0.039700
     31 H2          23.8240   -46.6530    -9.5200 h1         1 5QK       0.039700
     32 H3          24.3600   -44.4500   -10.4180 hc         1 5QK       0.058200
     33 H4          22.6640   -44.0090   -10.5180 hc         1 5QK       0.058200
     34 H5          24.6170   -42.2790    -9.1160 ha         1 5QK       0.112000
     35 H6          24.6990   -41.2990    -6.8490 ha         1 5QK       0.114000
     36 H7          23.5690   -42.4600    -4.9630 ha         1 5QK       0.113000
     37 H8          22.3790   -44.5870    -5.3720 ha         1 5QK       0.108000
     38 H9          21.1950   -45.9740    -7.0960 h1         1 5QK       0.040700
     39 H10         22.7610   -46.7590    -7.2670 h1         1 5QK       0.040700
     40 H12         20.5500   -47.7260    -8.3870 h1         1 5QK       0.043200
     41 H13         21.9540   -48.3240    -9.2790 h1         1 5QK       0.043200
     42 H14         20.9830   -47.5030   -11.3950 h1         1 5QK       0.050700
     43 H15         19.9280   -45.7530   -10.0600 ho         1 5QK       0.469000
     44 H16         18.8900   -48.9590    -9.7310 h1         1 5QK       0.069200
     45 H17         18.8740   -48.7880   -11.4930 h1         1 5QK       0.069200
     46 H18         20.6190   -50.5140    -9.8670 hn         1 5QK       0.353500
     47 H19         21.3910   -52.4750   -12.2290 h1         1 5QK       0.081700
     48 H20         22.7580   -51.3660   -12.3850 h1         1 5QK       0.081700
     49 H21         20.2830   -50.4880    -6.5340 h4         1 5QK       0.025100
     50 H22         21.9260   -49.2940    -5.1040 ha         1 5QK       0.129000
     51 H23         24.2500   -48.9670    -5.9520 ha         1 5QK       0.125000
     52 H24         25.8990   -49.2880    -7.8090 ha         1 5QK       0.123000
     53 H25         26.3930   -50.1760   -10.0650 ha         1 5QK       0.122000
     54 H26         24.6800   -51.4290   -11.3230 ha         1 5QK       0.128000
@<TRIPOS>BOND
     1     1     2 1   
     2     1    10 1   
     3     1    30 1   
     4     1    31 1   
     5     2     3 1   
     6     2    32 1   
     7     2    33 1   
     8     3     4 ar  
     9     3     8 ar  
    10     4     5 ar  
    11     4    34 1   
    12     5     6 ar  
    13     5    35 1   
    14     6     7 ar  
    15     6    36 1   
    16     7     8 ar  
    17     7    37 1   
    18     8     9 1   
    19     9    10 1   
    20     9    38 1   
    21     9    39 1   
    22    10    11 1   
    23    11    12 1   
    24    11    40 1   
    25    11    41 1   
    26    12    13 1   
    27    12    14 1   
    28    12    42 1   
    29    13    43 1   
    30    14    15 1   
    31    14    44 1   
    32    14    45 1   
    33    15    16 1   
    34    15    46 1   
    35    16    17 2   
    36    16    18 1   
    37    18    19 1   
    38    18    47 1   
    39    18    48 1   
    40    19    20 1   
    41    20    21 ar  
    42    20    29 ar  
    43    21    22 ar  
    44    21    26 ar  
    45    22    23 ar  
    46    23    24 ar  
    47    23    49 1   
    48    24    25 ar  
    49    24    50 1   
    50    25    26 ar  
    51    25    51 1   
    52    26    27 ar  
    53    27    28 ar  
    54    27    52 1   
    55    28    29 ar  
    56    28    53 1   
    57    29    54 1   
@<TRIPOS>SUBSTRUCTURE
     1 5QK         1 TEMP              0 ****  ****    0 ROOT
