@<TRIPOS>MOLECULE
5QL
   61    64     1     0     0
SMALL
No Charge or Current Charge


@<TRIPOS>ATOM
      1 CAV         -6.2000    -1.4030     0.0480 c6         1 5QL       0.176800
      2 CAW         -7.1870    -0.2390     0.2950 c6         1 5QL      -0.030100
      3 CAX         -6.8410     1.0250    -0.4960 ca         1 5QL      -0.066300
      4 CBD         -7.7870     2.0610    -0.6140 ca         1 5QL      -0.109000
      5 CBC         -7.4700     3.2320    -1.3220 ca         1 5QL      -0.107000
      6 CBB         -6.2040     3.3740    -1.9120 ca         1 5QL      -0.109000
      7 CBA         -5.2540     2.3450    -1.7940 ca         1 5QL      -0.105000
      8 CAY         -5.5650     1.1680    -1.0830 ca         1 5QL      -0.078300
      9 CAZ         -4.5250     0.0460    -0.9790 c6         1 5QL       0.210100
     10 NAU         -4.7910    -0.9370     0.1160 n3         1 5QL      -0.746600
     11 CAT         -3.8180    -2.0700     0.1310 c3         1 5QL       0.129800
     12 CAB         -2.3850    -1.6290     0.5230 c3         1 5QL       0.144300
     13 OAA         -2.5410    -0.6290     1.5370 oh         1 5QL      -0.674000
     14 CAC         -1.5010    -2.8030     1.0210 c3         1 5QL       0.102000
     15 NAD         -0.1290    -2.3930     1.3530 ns         1 5QL      -0.490900
     16 CAE          0.8480    -2.1010     0.4260 c          1 5QL       0.611700
     17 OAF          0.6400    -2.2370    -0.7740 o          1 5QL      -0.613100
     18 CAG          2.1820    -1.6160     0.9690 ca         1 5QL      -0.107600
     19 CAH          3.2250    -1.2940     0.0680 ca         1 5QL      -0.135000
     20 CAS          2.4270    -1.4710     2.3570 ca         1 5QL      -0.138000
     21 CAR          3.6750    -1.0220     2.8190 ca         1 5QL      -0.080000
     22 CAQ          4.6950    -0.7080     1.9070 ca         1 5QL      -0.163000
     23 CAI          4.4720    -0.8380     0.5260 ca         1 5QL       0.303000
     24 NAJ          5.4690    -0.5360    -0.4080 nu         1 5QL      -0.940200
     25 CAK          6.4930     0.5060    -0.2350 c6         1 5QL       0.219500
     26 CAL          5.8320     1.9040    -0.1490 c6         1 5QL      -0.133900
     27 CAM          6.9170     3.0040    -0.1180 c6         1 5QL       0.156600
     28 OAN          7.7800     2.8750    -1.2680 os         1 5QL      -0.448000
     29 CAO          8.4900     1.6190    -1.3300 c6         1 5QL       0.156600
     30 CAP          7.4800     0.4520    -1.4230 c6         1 5QL      -0.133900
     31 H1          -6.3880    -2.1850     0.7990 h1         1 5QL       0.036700
     32 H2          -6.4030    -1.8460    -0.9380 h1         1 5QL       0.036700
     33 H3          -8.2060    -0.5700     0.0540 hc         1 5QL       0.056200
     34 H4          -7.1870     0.0050     1.3650 hc         1 5QL       0.056200
     35 H5          -8.7680     1.9580    -0.1550 ha         1 5QL       0.110000
     36 H6          -8.2050     4.0300    -1.4110 ha         1 5QL       0.113000
     37 H7          -5.9580     4.2800    -2.4610 ha         1 5QL       0.114000
     38 H8          -4.2760     2.4600    -2.2560 ha         1 5QL       0.112000
     39 H9          -4.4980    -0.4740    -1.9480 h1         1 5QL       0.046200
     40 H10         -3.5360     0.5070    -0.8440 h1         1 5QL       0.046200
     41 H12         -4.1480    -2.8200     0.8620 h1         1 5QL       0.044700
     42 H13         -3.7870    -2.5710    -0.8470 h1         1 5QL       0.044700
     43 H14         -1.9120    -1.1850    -0.3630 h1         1 5QL       0.047700
     44 H15         -3.4790    -0.3430     1.3810 ho         1 5QL       0.474000
     45 H16         -1.9590    -3.2500     1.9130 h1         1 5QL       0.060200
     46 H17         -1.4610    -3.5780     0.2450 h1         1 5QL       0.060200
     47 H18          0.1010    -2.2330     2.3240 hn         1 5QL       0.325500
     48 H19          3.0640    -1.3950    -1.0020 ha         1 5QL       0.130000
     49 H20          1.6630    -1.7040     3.0940 ha         1 5QL       0.120000
     50 H21          3.8530    -0.9180     3.8870 ha         1 5QL       0.112000
     51 H22          5.6550    -0.3700     2.2820 ha         1 5QL       0.113000
     52 H23          5.2380    -0.7870    -1.3690 hn         1 5QL       0.464000
     53 H24          7.0680     0.3290     0.6880 h1         1 5QL       0.060700
     54 H25          5.1720     2.0670    -1.0120 hc         1 5QL       0.057700
     55 H26          5.2060     1.9780     0.7490 hc         1 5QL       0.057700
     56 H27          6.4460     3.9980    -0.1340 h1         1 5QL       0.046200
     57 H28          7.5180     2.9250     0.8000 h1         1 5QL       0.046200
     58 H29          9.1460     1.6210    -2.2120 h1         1 5QL       0.046200
     59 H30          9.1200     1.5110    -0.4340 h1         1 5QL       0.046200
     60 H31          8.0190    -0.5050    -1.4270 hc         1 5QL       0.057700
     61 H32          6.9380     0.5190    -2.3770 hc         1 5QL       0.057700
@<TRIPOS>BOND
     1     1     2 1   
     2     1    10 1   
     3     1    31 1   
     4     1    32 1   
     5     2     3 1   
     6     2    33 1   
     7     2    34 1   
     8     3     4 ar  
     9     3     8 ar  
    10     4     5 ar  
    11     4    35 1   
    12     5     6 ar  
    13     5    36 1   
    14     6     7 ar  
    15     6    37 1   
    16     7     8 ar  
    17     7    38 1   
    18     8     9 1   
    19     9    10 1   
    20     9    39 1   
    21     9    40 1   
    22    10    11 1   
    23    11    12 1   
    24    11    41 1   
    25    11    42 1   
    26    12    13 1   
    27    12    14 1   
    28    12    43 1   
    29    13    44 1   
    30    14    15 1   
    31    14    45 1   
    32    14    46 1   
    33    15    16 1   
    34    15    47 1   
    35    16    17 2   
    36    16    18 1   
    37    18    19 ar  
    38    18    20 ar  
    39    19    23 ar  
    40    19    48 1   
    41    20    21 ar  
    42    20    49 1   
    43    21    22 ar  
    44    21    50 1   
    45    22    23 ar  
    46    22    51 1   
    47    23    24 1   
    48    24    25 1   
    49    24    52 1   
    50    25    26 1   
    51    25    30 1   
    52    25    53 1   
    53    26    27 1   
    54    26    54 1   
    55    26    55 1   
    56    27    28 1   
    57    27    56 1   
    58    27    57 1   
    59    28    29 1   
    60    29    30 1   
    61    29    58 1   
    62    29    59 1   
    63    30    60 1   
    64    30    61 1   
@<TRIPOS>SUBSTRUCTURE
     1 5QL         1 TEMP              0 ****  ****    0 ROOT
