@<TRIPOS>MOLECULE
5QL
   61    64     1     0     0
SMALL
abcg2


@<TRIPOS>ATOM
      1 CAV         -6.1670    -1.6020     0.0230 c6         1 5QL       0.176800
      2 CAW         -7.0800    -0.5580     0.6400 c6         1 5QL      -0.030100
      3 CAX         -6.9450     0.7760    -0.0410 ca         1 5QL      -0.066300
      4 CBD         -7.9100     1.7660     0.1350 ca         1 5QL      -0.109000
      5 CBC         -7.7880     3.0020    -0.4800 ca         1 5QL      -0.107000
      6 CBB         -6.6870     3.2630    -1.2880 ca         1 5QL      -0.109000
      7 CBA         -5.7220     2.2860    -1.4650 ca         1 5QL      -0.105000
      8 CAY         -5.8380     1.0420    -0.8460 ca         1 5QL      -0.078300
      9 CAZ         -4.7810    -0.0040    -1.0800 c6         1 5QL       0.210100
     10 NAU         -4.8230    -1.0610    -0.0890 n3         1 5QL      -0.746600
     11 CAT         -3.7930    -2.0600    -0.3090 c3         1 5QL       0.129800
     12 CAB         -2.4560    -1.5350     0.2120 c3         1 5QL       0.144300
     13 OAA         -2.6340    -1.0000     1.5020 oh         1 5QL      -0.674000
     14 CAC         -1.4160    -2.6420     0.2680 c3         1 5QL       0.102000
     15 NAD         -0.1340    -2.1630     0.7280 ns         1 5QL      -0.490900
     16 CAE          0.8150    -1.6820    -0.0930 c          1 5QL       0.611700
     17 OAF          0.7440    -1.7590    -1.3130 o          1 5QL      -0.613100
     18 CAG          1.9910    -1.0430     0.5780 ca         1 5QL      -0.107600
     19 CAH          3.2100    -1.0710    -0.0840 ca         1 5QL      -0.135000
     20 CAS          1.8710    -0.3770     1.7980 ca         1 5QL      -0.138000
     21 CAR          2.9890     0.2470     2.3300 ca         1 5QL      -0.080000
     22 CAQ          4.2120     0.2140     1.6810 ca         1 5QL      -0.163000
     23 CAI          4.3490    -0.4610     0.4580 ca         1 5QL       0.303000
     24 NAJ          5.5510    -0.5720    -0.1990 nu         1 5QL      -0.940200
     25 CAK          6.6400     0.3620    -0.0020 c6         1 5QL       0.219500
     26 CAL          6.3340     1.7720    -0.5160 c6         1 5QL      -0.133900
     27 CAM          7.5600     2.6620    -0.3870 c6         1 5QL       0.156600
     28 OAN          8.6770     2.1180    -1.0560 os         1 5QL      -0.448000
     29 CAO          9.0300     0.8490    -0.5510 c6         1 5QL       0.156600
     30 CAP          7.8980    -0.1600    -0.6850 c6         1 5QL      -0.133900
     31 H1          -6.1400    -2.4880     0.6580 h1         1 5QL       0.036700
     32 H2          -6.5580    -1.9180    -0.9570 h1         1 5QL       0.036700
     33 H3          -8.1170    -0.9000     0.5970 hc         1 5QL       0.056200
     34 H4          -6.8330    -0.4500     1.7000 hc         1 5QL       0.056200
     35 H5          -8.7700     1.5590     0.7620 ha         1 5QL       0.110000
     36 H6          -8.5470     3.7600    -0.3310 ha         1 5QL       0.113000
     37 H7          -6.5810     4.2250    -1.7730 ha         1 5QL       0.114000
     38 H8          -4.8600     2.4890    -2.0910 ha         1 5QL       0.112000
     39 H9          -4.9020    -0.4160    -2.0970 h1         1 5QL       0.046200
     40 H10         -3.7990     0.4740    -1.0650 h1         1 5QL       0.046200
     41 H12         -4.0680    -2.9580     0.2520 h1         1 5QL       0.044700
     42 H13         -3.7020    -2.3550    -1.3650 h1         1 5QL       0.044700
     43 H14         -2.0810    -0.7620    -0.4760 h1         1 5QL       0.047700
     44 H15         -3.5410    -0.6510     1.4950 ho         1 5QL       0.474000
     45 H16         -1.7480    -3.4330     0.9430 h1         1 5QL       0.060200
     46 H17         -1.3000    -3.0870    -0.7210 h1         1 5QL       0.060200
     47 H18          0.0000    -2.0920     1.7220 hn         1 5QL       0.325500
     48 H19          3.2870    -1.5790    -1.0370 ha         1 5QL       0.130000
     49 H20          0.9210    -0.3000     2.3110 ha         1 5QL       0.120000
     50 H21          2.9070     0.7860     3.2650 ha         1 5QL       0.112000
     51 H22          5.0550     0.7200     2.1310 ha         1 5QL       0.113000
     52 H23          5.4670    -0.8960    -1.1520 hn         1 5QL       0.464000
     53 H24          6.8530     0.4180     1.0710 h1         1 5QL       0.060700
     54 H25          6.0240     1.7100    -1.5640 hc         1 5QL       0.057700
     55 H26          5.5060     2.2190     0.0390 hc         1 5QL       0.057700
     56 H27          7.3710     3.6440    -0.8230 h1         1 5QL       0.046200
     57 H28          7.7900     2.8160     0.6790 h1         1 5QL       0.046200
     58 H29          9.9060     0.5150    -1.1080 h1         1 5QL       0.046200
     59 H30          9.3250     0.9280     0.5060 h1         1 5QL       0.046200
     60 H31          8.2060    -1.1100    -0.2430 hc         1 5QL       0.057700
     61 H32          7.6950    -0.3430    -1.7460 hc         1 5QL       0.057700
@<TRIPOS>BOND
     1     1     2 1   
     2     1    10 1   
     3     1    31 1   
     4     1    32 1   
     5     2     3 1   
     6     2    33 1   
     7     2    34 1   
     8     3     4 ar  
     9     3     8 ar  
    10     4     5 ar  
    11     4    35 1   
    12     5     6 ar  
    13     5    36 1   
    14     6     7 ar  
    15     6    37 1   
    16     7     8 ar  
    17     7    38 1   
    18     8     9 1   
    19     9    10 1   
    20     9    39 1   
    21     9    40 1   
    22    10    11 1   
    23    11    12 1   
    24    11    41 1   
    25    11    42 1   
    26    12    13 1   
    27    12    14 1   
    28    12    43 1   
    29    13    44 1   
    30    14    15 1   
    31    14    45 1   
    32    14    46 1   
    33    15    16 1   
    34    15    47 1   
    35    16    17 2   
    36    16    18 1   
    37    18    19 ar  
    38    18    20 ar  
    39    19    23 ar  
    40    19    48 1   
    41    20    21 ar  
    42    20    49 1   
    43    21    22 ar  
    44    21    50 1   
    45    22    23 ar  
    46    22    51 1   
    47    23    24 1   
    48    24    25 1   
    49    24    52 1   
    50    25    26 1   
    51    25    30 1   
    52    25    53 1   
    53    26    27 1   
    54    26    54 1   
    55    26    55 1   
    56    27    28 1   
    57    27    56 1   
    58    27    57 1   
    59    28    29 1   
    60    29    30 1   
    61    29    58 1   
    62    29    59 1   
    63    30    60 1   
    64    30    61 1   
@<TRIPOS>SUBSTRUCTURE
     1 5QL         1 TEMP              0 ****  ****    0 ROOT
