@<TRIPOS>MOLECULE
5QM
   23    24     1     0     0
SMALL
abcg2


@<TRIPOS>ATOM
      1 O1           5.2180     1.2520    -0.0050 oh         1 5QM      -0.647000
      2 C2           4.8470    -0.1060    -0.0020 c3         1 5QM       0.251700
      3 C3           3.3930    -0.2040    -0.0040 c1         1 5QM      -0.117100
      4 C4           2.1930    -0.3080    -0.0010 cg         1 5QM      -0.103000
      5 C5           0.7740    -0.4390    -0.0030 ca         1 5QM       0.028000
      6 C6           0.1880    -1.7340    -0.0200 ca         1 5QM      -0.075000
      7 C7          -1.1670    -1.8930    -0.0240 ca         1 5QM      -0.107000
      8 C8          -2.0190    -0.7640    -0.0110 ca         1 5QM      -0.006000
      9 C9          -3.4270    -0.8460    -0.0160 ca         1 5QM      -0.148000
     10 C10         -4.1600     0.3080    -0.0030 ca         1 5QM       0.327900
     11 N11         -3.6120     1.5450     0.0150 nb         1 5QM      -0.666000
     12 C12         -2.3120     1.6400     0.0190 ca         1 5QM       0.367900
     13 C13         -1.4390     0.5250     0.0060 ca         1 5QM      -0.102000
     14 C14         -0.0380     0.6720     0.0110 ca         1 5QM      -0.056000
     15 HO1          6.1790     1.2900     0.0030 ho         1 5QM       0.447000
     16 H2           5.2320    -0.6430    -0.8780 h1         1 5QM       0.036700
     17 H2A          5.2300    -0.6370     0.8800 h1         1 5QM       0.036700
     18 H6           0.8360    -2.6000    -0.0310 ha         1 5QM       0.121000
     19 H7          -1.5980    -2.8870    -0.0370 ha         1 5QM       0.120000
     20 H9          -3.9210    -1.8080    -0.0290 ha         1 5QM       0.124000
     21 H10         -5.2430     0.2690    -0.0060 h4         1 5QM       0.019100
     22 H12         -1.8870     2.6400     0.0330 h4         1 5QM       0.021100
     23 H14          0.3930     1.6660     0.0250 ha         1 5QM       0.128000
@<TRIPOS>BOND
     1     1     2 1   
     2     1    15 1   
     3     2     3 1   
     4     2    16 1   
     5     2    17 1   
     6     3     4 3   
     7     4     5 1   
     8     5     6 ar  
     9     5    14 ar  
    10     6     7 ar  
    11     6    18 1   
    12     7     8 ar  
    13     7    19 1   
    14     8     9 ar  
    15     8    13 ar  
    16     9    10 ar  
    17     9    20 1   
    18    10    11 ar  
    19    10    21 1   
    20    11    12 ar  
    21    12    13 ar  
    22    12    22 1   
    23    13    14 ar  
    24    14    23 1   
@<TRIPOS>SUBSTRUCTURE
     1 5QM         1 TEMP              0 ****  ****    0 ROOT
