@<TRIPOS>MOLECULE
5QM
   23    24     1     0     0
SMALL
No Charge or Current Charge


@<TRIPOS>ATOM
      1 O1           5.2690     1.2800    -0.0010 oh         1 5QM      -0.647000
      2 C2           4.8710    -0.0950     0.0020 c3         1 5QM       0.251700
      3 C3           3.4090    -0.2030    -0.0020 c1         1 5QM      -0.117100
      4 C4           2.2000    -0.3320    -0.0040 cg         1 5QM      -0.103000
      5 C5           0.7730    -0.4740    -0.0070 ca         1 5QM       0.028000
      6 C6           0.1910    -1.7560    -0.0230 ca         1 5QM      -0.075000
      7 C7          -1.2080    -1.8990    -0.0260 ca         1 5QM      -0.107000
      8 C8          -2.0270    -0.7560    -0.0120 ca         1 5QM      -0.006000
      9 C9          -3.4280    -0.8570    -0.0140 ca         1 5QM      -0.148000
     10 C10         -4.1970     0.3200     0.0000 ca         1 5QM       0.327900
     11 N11         -3.6520     1.5590     0.0160 nb         1 5QM      -0.666000
     12 C12         -2.3000     1.6530     0.0180 ca         1 5QM       0.367900
     13 C13         -1.4500     0.5280     0.0050 ca         1 5QM      -0.102000
     14 C14         -0.0490     0.6700     0.0070 ca         1 5QM      -0.056000
     15 HO1          6.2520     1.2860     0.0010 ho         1 5QM       0.447000
     16 H2           5.2650    -0.6120    -0.8840 h1         1 5QM       0.036700
     17 H2A          5.2610    -0.6070     0.8920 h1         1 5QM       0.036700
     18 H6           0.8230    -2.6420    -0.0340 ha         1 5QM       0.121000
     19 H7          -1.6500    -2.8920    -0.0380 ha         1 5QM       0.120000
     20 H9          -3.9210    -1.8250    -0.0260 ha         1 5QM       0.124000
     21 H10         -5.2850     0.2690    -0.0010 h4         1 5QM       0.019100
     22 H12         -1.8880     2.6620     0.0310 h4         1 5QM       0.021100
     23 H14          0.4000     1.6610     0.0200 ha         1 5QM       0.128000
@<TRIPOS>BOND
     1     1     2 1   
     2     1    15 1   
     3     2     3 1   
     4     2    16 1   
     5     2    17 1   
     6     3     4 3   
     7     4     5 1   
     8     5     6 ar  
     9     5    14 ar  
    10     6     7 ar  
    11     6    18 1   
    12     7     8 ar  
    13     7    19 1   
    14     8     9 ar  
    15     8    13 ar  
    16     9    10 ar  
    17     9    20 1   
    18    10    11 ar  
    19    10    21 1   
    20    11    12 ar  
    21    12    13 ar  
    22    12    22 1   
    23    13    14 ar  
    24    14    23 1   
@<TRIPOS>SUBSTRUCTURE
     1 5QM         1 TEMP              0 ****  ****    0 ROOT
