@<TRIPOS>MOLECULE
5QN
   63    65     1     0     0
SMALL
No Charge or Current Charge


@<TRIPOS>ATOM
      1 C17          0.1750     0.7430    -0.5940 ca         1 5QN      -0.016000
      2 C21         -3.9850     1.6590    -1.1740 c3         1 5QN       0.163600
      3 C22         -5.5310     1.6150    -1.2980 c3         1 5QN       0.176800
      4 C24         -6.0520     1.8930     1.1430 c6         1 5QN       0.067500
      5 C28         -7.7290     0.9440    -0.3520 c6         1 5QN       0.143800
      6 C01          3.4170     4.7880    -0.6480 c3         1 5QN      -0.097100
      7 C02          4.6180     3.8670    -0.3820 c3         1 5QN       0.171600
      8 C04          4.9410     1.4370    -0.0500 ca         1 5QN       0.124100
      9 C05          6.3340     1.5780     0.1140 ca         1 5QN      -0.195000
     10 C06          7.1380     0.4540     0.3520 ca         1 5QN      -0.058000
     11 C07          6.5650    -0.8350     0.4310 ca         1 5QN      -0.189600
     12 C08          7.4120    -2.0690     0.6880 c          1 5QN       0.584700
     13 C09          8.9250    -1.9280     0.8690 c3         1 5QN      -0.195100
     14 O10          6.9000    -3.1800     0.7540 o          1 5QN      -0.518100
     15 C11          5.1670    -0.9690     0.2650 ca         1 5QN      -0.048000
     16 C12          4.3500     0.1600     0.0250 ca         1 5QN      -0.062000
     17 N13          2.9360     0.0850    -0.1500 ns         1 5QN      -0.139000
     18 C14          2.0310    -0.9680    -0.1420 c          1 5QN       0.626700
     19 O15          2.3590    -2.1350     0.0390 o          1 5QN      -0.580100
     20 C16          0.5810    -0.5930    -0.3760 ca         1 5QN      -0.212600
     21 C18         -1.1780     1.0470    -0.8040 ca         1 5QN      -0.239000
     22 C19         -2.1560     0.0300    -0.8070 ca         1 5QN       0.222100
     23 O20         -3.4960     0.3190    -0.9760 os         1 5QN      -0.299100
     24 N23         -6.2700     1.0960    -0.1090 n3         1 5QN      -0.707600
     25 C25         -6.9870     1.5320     2.3110 c2         1 5QN       0.410200
     26 N26         -8.0660     0.8200     2.2010 n2         1 5QN      -0.567900
     27 C27         -8.4430     0.2790     0.8660 c6         1 5QN       0.093800
     28 C29         -1.7640    -1.3080    -0.6000 ca         1 5QN      -0.187600
     29 C30         -2.7760    -2.4200    -0.6090 c          1 5QN       0.616700
     30 O31         -3.7250    -2.4670    -1.3810 o          1 5QN      -0.465000
     31 O32         -2.4340    -3.4540     0.2280 os         1 5QN      -0.442100
     32 C33         -3.2940    -4.6080     0.2690 c3         1 5QN       0.153900
     33 C34         -0.4020    -1.6080    -0.3810 ca         1 5QN       0.030000
     34 H1           0.8900     1.5620    -0.6010 ha         1 5QN       0.113000
     35 H2          -3.5670     2.0860    -2.0950 h1         1 5QN       0.037700
     36 H3          -3.7010     2.3070    -0.3350 h1         1 5QN       0.037700
     37 H4          -5.8770     2.6320    -1.5300 h1         1 5QN       0.047700
     38 H5          -5.7700     0.9970    -2.1750 h1         1 5QN       0.047700
     39 H6          -5.0140     1.7750     1.4870 h1         1 5QN       0.044700
     40 H7          -6.1920     2.9630     0.9300 h1         1 5QN       0.044700
     41 H8          -8.1840     1.9290    -0.5340 h1         1 5QN       0.040200
     42 H9          -7.9140     0.3320    -1.2480 h1         1 5QN       0.040200
     43 H10          2.9190     4.5120    -1.5840 hc         1 5QN       0.049033
     44 H11          2.6900     4.7210     0.1700 hc         1 5QN       0.049033
     45 H12          3.7490     5.8300    -0.7280 hc         1 5QN       0.049033
     46 H13          5.3380     3.9580    -1.2050 h1         1 5QN       0.038700
     47 H14          5.1090     4.1680     0.5530 h1         1 5QN       0.038700
     48 H15          6.8120     2.5520     0.0600 ha         1 5QN       0.119000
     49 H16          8.2080     0.6040     0.4740 ha         1 5QN       0.114000
     50 H17          9.1250    -1.2190     1.6800 hc         1 5QN       0.059367
     51 H18          9.4190    -2.8900     1.0470 hc         1 5QN       0.059367
     52 H19          9.3450    -1.4200    -0.0070 hc         1 5QN       0.059367
     53 H20          4.7290    -1.9610     0.3260 ha         1 5QN       0.168000
     54 H21          2.5140     0.9890    -0.3130 hn         1 5QN       0.166000
     55 H22         -1.4480     2.0870    -0.9600 ha         1 5QN       0.121000
     56 H24         -6.7080     1.9250     3.2850 h4         1 5QN       0.016800
     57 H25         -9.5300     0.3860     0.7350 h1         1 5QN       0.071200
     58 H26         -8.2240    -0.7990     0.8610 h1         1 5QN       0.071200
     59 H27         -4.3080    -4.3300     0.5850 h1         1 5QN       0.048367
     60 H28         -3.3550    -5.0870    -0.7170 h1         1 5QN       0.048367
     61 H29         -2.9070    -5.3480     0.9810 h1         1 5QN       0.048367
     62 H30         -0.1030    -2.6430    -0.2230 ha         1 5QN       0.155000
     63 O03          4.1170     2.5230    -0.2870 os         1 5QN      -0.370100
@<TRIPOS>BOND
     1     1    20 ar  
     2     1    21 ar  
     3     1    34 1   
     4     2     3 1   
     5     2    23 1   
     6     2    35 1   
     7     2    36 1   
     8     3    24 1   
     9     3    37 1   
    10     3    38 1   
    11     4    24 1   
    12     4    25 1   
    13     4    39 1   
    14     4    40 1   
    15     5    24 1   
    16     5    27 1   
    17     5    41 1   
    18     5    42 1   
    19     6     7 1   
    20     6    43 1   
    21     6    44 1   
    22     6    45 1   
    23     7    46 1   
    24     7    47 1   
    25     7    63 1   
    26     8     9 ar  
    27     8    16 ar  
    28     8    63 1   
    29     9    10 ar  
    30     9    48 1   
    31    10    11 ar  
    32    10    49 1   
    33    11    12 1   
    34    11    15 ar  
    35    12    13 1   
    36    12    14 2   
    37    13    50 1   
    38    13    51 1   
    39    13    52 1   
    40    15    16 ar  
    41    15    53 1   
    42    16    17 1   
    43    17    18 1   
    44    17    54 1   
    45    18    19 2   
    46    18    20 1   
    47    20    33 ar  
    48    21    22 ar  
    49    21    55 1   
    50    22    23 1   
    51    22    28 ar  
    52    25    26 2   
    53    25    56 1   
    54    26    27 1   
    55    27    57 1   
    56    27    58 1   
    57    28    29 1   
    58    28    33 ar  
    59    29    30 2   
    60    29    31 1   
    61    31    32 1   
    62    32    59 1   
    63    32    60 1   
    64    32    61 1   
    65    33    62 1   
@<TRIPOS>SUBSTRUCTURE
     1 5QN         1 TEMP              0 ****  ****    0 ROOT
