@<TRIPOS>MOLECULE
5QN
   63    65     1     0     0
SMALL
bcc


@<TRIPOS>ATOM
      1 C17          0.1060     0.6590    -1.1550 ca         1 5QN      -0.034000
      2 C21         -3.9950     1.3310    -1.7080 c3         1 5QN       0.140400
      3 C22         -5.5060     1.2540    -1.7220 c3         1 5QN       0.176800
      4 C24         -5.8930     2.1420     0.4840 c6         1 5QN       0.067500
      5 C28         -7.4860     0.6720    -0.4790 c6         1 5QN       0.143800
      6 C01          3.2850     4.7130     0.7310 c3         1 5QN      -0.097100
      7 C02          4.4500     3.7560     0.7090 c3         1 5QN       0.148400
      8 C04          4.8020     1.4350     0.2540 ca         1 5QN       0.124100
      9 C05          6.1730     1.5150     0.4540 ca         1 5QN      -0.213000
     10 C06          6.9640     0.3850     0.3090 ca         1 5QN      -0.076000
     11 C07          6.3990    -0.8330    -0.0450 ca         1 5QN      -0.189600
     12 C08          7.2140    -2.0610    -0.2160 c          1 5QN       0.584700
     13 C09          8.6990    -1.9660     0.0090 c3         1 5QN      -0.195100
     14 O10          6.6940    -3.1140    -0.5290 o          1 5QN      -0.518100
     15 C11          5.0170    -0.9110    -0.2530 ca         1 5QN      -0.066000
     16 C12          4.2100     0.2000    -0.1000 ca         1 5QN       0.030600
     17 N13          2.8270     0.2140    -0.3030 ns         1 5QN      -0.465100
     18 C14          1.9730    -0.8410    -0.2830 c          1 5QN       0.693700
     19 O15          2.3260    -1.9870    -0.0590 o          1 5QN      -0.580100
     20 C16          0.5430    -0.5130    -0.5420 ca         1 5QN      -0.212600
     21 C18         -1.2370     0.8900    -1.3860 ca         1 5QN      -0.257000
     22 C19         -2.1920    -0.0600    -1.0210 ca         1 5QN       0.222100
     23 O20         -3.4990     0.1060    -1.1880 os         1 5QN      -0.275900
     24 N23         -6.0850     1.0340    -0.4180 n3         1 5QN      -0.707600
     25 C25         -6.7100     2.0040     1.7320 c2         1 5QN       0.410200
     26 N26         -7.6180     1.1570     1.9590 n2         1 5QN      -0.567900
     27 C27         -7.9490     0.2280     0.8960 c6         1 5QN       0.093800
     28 C29         -1.7630    -1.2590    -0.4170 ca         1 5QN      -0.187600
     29 C30         -2.7360    -2.3310    -0.0780 c          1 5QN       0.665700
     30 O31         -3.7190    -2.5980    -0.7200 o          1 5QN      -0.514000
     31 O32         -2.3740    -2.9860     1.0180 os         1 5QN      -0.418900
     32 C33         -3.1730    -4.1040     1.4060 c3         1 5QN       0.130700
     33 C34         -0.4120    -1.4580    -0.1830 ca         1 5QN       0.012000
     34 H1           0.8020     1.4160    -1.4930 ha         1 5QN       0.131000
     35 H2          -3.6410     1.4870    -2.7320 h1         1 5QN       0.037700
     36 H3          -3.6390     2.1750    -1.1080 h1         1 5QN       0.037700
     37 H4          -5.8700     2.1820    -2.1950 h1         1 5QN       0.047700
     38 H5          -5.8090     0.4320    -2.3750 h1         1 5QN       0.047700
     39 H6          -4.8450     2.2190     0.7910 h1         1 5QN       0.044700
     40 H7          -6.1440     3.1200     0.0310 h1         1 5QN       0.044700
     41 H8          -8.1140     1.5070    -0.8350 h1         1 5QN       0.040200
     42 H9          -7.6150    -0.1470    -1.1890 h1         1 5QN       0.040200
     43 H10          2.8090     4.7840    -0.2470 hc         1 5QN       0.049033
     44 H11          2.5350     4.4150     1.4640 hc         1 5QN       0.049033
     45 H12          3.6430     5.7050     1.0020 hc         1 5QN       0.049033
     46 H13          5.1980     4.0750    -0.0240 h1         1 5QN       0.038700
     47 H14          4.9370     3.7120     1.6880 h1         1 5QN       0.038700
     48 H15          6.6380     2.4510     0.7280 ha         1 5QN       0.137000
     49 H16          8.0280     0.4830     0.4760 ha         1 5QN       0.132000
     50 H17          8.9190    -1.6420     1.0270 hc         1 5QN       0.059367
     51 H18          9.1680    -2.9330    -0.1600 hc         1 5QN       0.059367
     52 H19          9.1500    -1.2360    -0.6640 hc         1 5QN       0.059367
     53 H20          4.5870    -1.8560    -0.5420 ha         1 5QN       0.186000
     54 H21          2.4230     1.1360    -0.3470 hn         1 5QN       0.332500
     55 H22         -1.5270     1.8140    -1.8650 ha         1 5QN       0.139000
     56 H24         -6.4770     2.7200     2.5190 h4         1 5QN       0.016800
     57 H25         -9.0320     0.0830     0.8940 h1         1 5QN       0.071200
     58 H26         -7.5120    -0.7430     1.1450 h1         1 5QN       0.071200
     59 H27         -4.1940    -3.8010     1.6360 h1         1 5QN       0.048367
     60 H28         -3.1910    -4.8700     0.6320 h1         1 5QN       0.048367
     61 H29         -2.7060    -4.5050     2.3010 h1         1 5QN       0.048367
     62 H30         -0.0840    -2.3790     0.2790 ha         1 5QN       0.173000
     63 O03          3.9550     2.4640     0.3620 os         1 5QN      -0.346900
@<TRIPOS>BOND
     1     1    20 ar  
     2     1    21 ar  
     3     1    34 1   
     4     2     3 1   
     5     2    23 1   
     6     2    35 1   
     7     2    36 1   
     8     3    24 1   
     9     3    37 1   
    10     3    38 1   
    11     4    24 1   
    12     4    25 1   
    13     4    39 1   
    14     4    40 1   
    15     5    24 1   
    16     5    27 1   
    17     5    41 1   
    18     5    42 1   
    19     6     7 1   
    20     6    43 1   
    21     6    44 1   
    22     6    45 1   
    23     7    46 1   
    24     7    47 1   
    25     7    63 1   
    26     8     9 ar  
    27     8    16 ar  
    28     8    63 1   
    29     9    10 ar  
    30     9    48 1   
    31    10    11 ar  
    32    10    49 1   
    33    11    12 1   
    34    11    15 ar  
    35    12    13 1   
    36    12    14 2   
    37    13    50 1   
    38    13    51 1   
    39    13    52 1   
    40    15    16 ar  
    41    15    53 1   
    42    16    17 1   
    43    17    18 1   
    44    17    54 1   
    45    18    19 2   
    46    18    20 1   
    47    20    33 ar  
    48    21    22 ar  
    49    21    55 1   
    50    22    23 1   
    51    22    28 ar  
    52    25    26 2   
    53    25    56 1   
    54    26    27 1   
    55    27    57 1   
    56    27    58 1   
    57    28    29 1   
    58    28    33 ar  
    59    29    30 2   
    60    29    31 1   
    61    31    32 1   
    62    32    59 1   
    63    32    60 1   
    64    32    61 1   
    65    33    62 1   
@<TRIPOS>SUBSTRUCTURE
     1 5QN         1 TEMP              0 ****  ****    0 ROOT
