@<TRIPOS>MOLECULE
5QO
   48    52     1     0     0
SMALL
bcc


@<TRIPOS>ATOM
      1 C15          4.2590     1.0980     0.6410 c6         1 5QO       0.119000
      2 N5           4.9710    -0.1430     0.3760 ns         1 5QO      -0.580900
      3 C16          4.3650    -1.3590     0.2970 c          1 5QO       0.750100
      4 O1           4.9900    -2.4130     0.3600 o          1 5QO      -0.640500
      5 C12          2.9250    -1.2750     0.0930 cc         1 5QO      -0.241600
      6 C13          1.9060    -2.2620     0.1080 cc         1 5QO      -0.107000
      7 C10          0.7160    -1.6070    -0.1390 cd         1 5QO      -0.095300
      8 N4           1.0150    -0.2810    -0.3260 na         1 5QO      -0.114100
      9 C11          2.3240    -0.0620    -0.1780 cd         1 5QO      -0.078600
     10 C14          3.0270     1.2460    -0.2520 c6         1 5QO      -0.005400
     11 C17          2.1440     2.4280     0.1750 c3         1 5QO      -0.047200
     12 C21          1.1060     2.7630    -0.8560 c2         1 5QO      -0.159200
     13 C20         -0.2090     2.9170    -0.7040 c2         1 5QO      -0.183200
     14 C18         -1.0100     2.8270     0.5710 c3         1 5QO       0.277700
     15 C19         -1.1720     4.2090     1.1950 c3         1 5QO      -0.106100
     16 N3          -2.3360     2.2730     0.3340 nu         1 5QO      -0.886900
     17 C2          -2.5670     0.9670     0.1170 ca         1 5QO       0.601900
     18 N2          -1.5510     0.1530     0.0220 nb         1 5QO      -0.791000
     19 C3          -1.7640    -1.1760    -0.1250 ca         1 5QO       0.356300
     20 C5          -0.6640    -2.0780    -0.2000 ca         1 5QO      -0.054300
     21 C6          -0.9450    -3.4290    -0.3170 ca         1 5QO      -0.097000
     22 C7          -2.2580    -3.9120    -0.3640 ca         1 5QO      -0.137000
     23 C8          -3.3230    -3.0450    -0.3090 ca         1 5QO      -0.142300
     24 C4          -3.0820    -1.6680    -0.1900 ca         1 5QO       0.251300
     25 N1          -4.1380    -0.8020    -0.1340 nb         1 5QO      -0.612000
     26 C1          -3.9260     0.4640     0.0090 ca         1 5QO       0.291300
     27 C9          -5.0830     1.4060     0.0680 c3         1 5QO      -0.148400
     28 H1           3.9470     1.1490     1.6910 h1         1 5QO       0.039200
     29 H2           4.9490     1.9230     0.4670 h1         1 5QO       0.039200
     30 H3           5.9560    -0.1530     0.5900 hn         1 5QO       0.310500
     31 H4           2.0290    -3.3160     0.3030 ha         1 5QO       0.161000
     32 H5           0.2810     0.4120    -0.4270 hn         1 5QO       0.338700
     33 H6           3.3660     1.4210    -1.2820 hc         1 5QO       0.074700
     34 H7           1.7060     2.2300     1.1560 hc         1 5QO       0.054200
     35 H8           2.7910     3.3040     0.2990 hc         1 5QO       0.054200
     36 H9           1.5020     2.9150    -1.8560 ha         1 5QO       0.125000
     37 H10         -0.7880     3.1940    -1.5810 ha         1 5QO       0.128000
     38 H11         -0.4970     2.1820     1.2900 h1         1 5QO       0.073700
     39 H12         -1.6620     4.8990     0.5060 hc         1 5QO       0.047033
     40 H13         -1.7640     4.1560     2.1100 hc         1 5QO       0.047033
     41 H14         -0.1960     4.6220     1.4450 hc         1 5QO       0.047033
     42 H15         -3.1150     2.9080     0.3630 hn         1 5QO       0.445800
     43 H16         -0.1270    -4.1360    -0.3810 ha         1 5QO       0.142000
     44 H17         -2.4260    -4.9770    -0.4550 ha         1 5QO       0.139000
     45 H18         -4.3450    -3.3990    -0.3560 ha         1 5QO       0.149000
     46 H19         -5.1190     1.9300     1.0260 hc         1 5QO       0.054700
     47 H20         -5.0170     2.1650    -0.7150 hc         1 5QO       0.054700
     48 H21         -6.0170     0.8630    -0.0580 hc         1 5QO       0.054700
@<TRIPOS>BOND
     1     1     2 1   
     2     1    10 1   
     3     1    28 1   
     4     1    29 1   
     5     2     3 1   
     6     2    30 1   
     7     3     4 2   
     8     3     5 1   
     9     5     6 1   
    10     5     9 2   
    11     6     7 2   
    12     6    31 1   
    13     7     8 1   
    14     7    20 1   
    15     8     9 1   
    16     8    32 1   
    17     9    10 1   
    18    10    11 1   
    19    10    33 1   
    20    11    12 1   
    21    11    34 1   
    22    11    35 1   
    23    12    13 2   
    24    12    36 1   
    25    13    14 1   
    26    13    37 1   
    27    14    15 1   
    28    14    16 1   
    29    14    38 1   
    30    15    39 1   
    31    15    40 1   
    32    15    41 1   
    33    16    17 1   
    34    16    42 1   
    35    17    18 ar  
    36    17    26 ar  
    37    18    19 ar  
    38    19    20 ar  
    39    19    24 ar  
    40    20    21 ar  
    41    21    22 ar  
    42    21    43 1   
    43    22    23 ar  
    44    22    44 1   
    45    23    24 ar  
    46    23    45 1   
    47    24    25 ar  
    48    25    26 ar  
    49    26    27 1   
    50    27    46 1   
    51    27    47 1   
    52    27    48 1   
@<TRIPOS>SUBSTRUCTURE
     1 5QO         1 TEMP              0 ****  ****    0 ROOT
