@<TRIPOS>MOLECULE
5QO
   48    52     1     0     0
SMALL
No Charge or Current Charge


@<TRIPOS>ATOM
      1 C15          4.4220     1.1220     0.6240 c6         1 5QO       0.119000
      2 N5           5.0390    -0.2250     0.5000 ns         1 5QO      -0.513900
      3 C16          4.3520    -1.4110     0.3120 c          1 5QO       0.607600
      4 O1           4.9110    -2.4930     0.3890 o          1 5QO      -0.565000
      5 C12          2.9060    -1.2260     0.0580 cc         1 5QO      -0.241600
      6 C13          1.8780    -2.2030     0.0120 cc         1 5QO      -0.089000
      7 C10          0.6740    -1.5540    -0.1450 cd         1 5QO      -0.146000
      8 N4           1.0000    -0.2040    -0.2900 na         1 5QO      -0.063000
      9 C11          2.3590    -0.0010    -0.1580 cd         1 5QO      -0.129300
     10 C14          3.1330     1.2860    -0.2300 c6         1 5QO      -0.005400
     11 C17          2.2490     2.5180     0.1620 c3         1 5QO      -0.047200
     12 C21          1.1740     2.8480    -0.8750 c2         1 5QO      -0.209200
     13 C20         -0.1630     2.9670    -0.7120 c2         1 5QO      -0.233200
     14 C18         -0.9880     2.8280     0.5550 c3         1 5QO       0.277700
     15 C19         -1.1360     4.1800     1.2710 c3         1 5QO      -0.106100
     16 N3          -2.3280     2.3070     0.2150 nu         1 5QO      -0.942100
     17 C2          -2.6990     0.9690     0.0390 ca         1 5QO       0.601900
     18 N2          -1.6390     0.1640    -0.0290 nb         1 5QO      -0.791000
     19 C3          -1.8430    -1.1790    -0.1510 ca         1 5QO       0.291000
     20 C5          -0.7220    -2.0730    -0.1900 ca         1 5QO       0.011000
     21 C6          -0.9510    -3.4610    -0.2550 ca         1 5QO      -0.079000
     22 C7          -2.2580    -3.9670    -0.3120 ca         1 5QO      -0.119000
     23 C8          -3.3600    -3.0960    -0.2920 ca         1 5QO      -0.059000
     24 C4          -3.1810    -1.7040    -0.2040 ca         1 5QO       0.186000
     25 N1          -4.2780    -0.8900    -0.1550 nb         1 5QO      -0.612000
     26 C1          -4.0370     0.4490    -0.0330 ca         1 5QO       0.291300
     27 C9          -5.2630     1.3510     0.0450 c3         1 5QO      -0.148400
     28 H1           4.1740     1.2740     1.6840 h1         1 5QO       0.039200
     29 H2           5.1600     1.8850     0.3410 h1         1 5QO       0.039200
     30 H3           6.0330    -0.3150     0.6710 hn         1 5QO       0.310500
     31 H4           2.0330    -3.2680     0.1570 ha         1 5QO       0.143000
     32 H5           0.2940     0.5240    -0.4070 hn         1 5QO       0.389000
     33 H6           3.4500     1.4430    -1.2700 hc         1 5QO       0.074700
     34 H7           1.8040     2.3550     1.1510 hc         1 5QO       0.054200
     35 H8           2.8970     3.3960     0.2730 hc         1 5QO       0.054200
     36 H9           1.5880     3.0010    -1.8740 ha         1 5QO       0.175000
     37 H10         -0.7740     3.2130    -1.5820 ha         1 5QO       0.178000
     38 H11         -0.4880     2.1430     1.2560 h1         1 5QO       0.073700
     39 H12         -1.6280     4.9160     0.6240 hc         1 5QO       0.047033
     40 H13         -1.7250     4.0710     2.1890 hc         1 5QO       0.047033
     41 H14         -0.1490     4.5720     1.5450 hc         1 5QO       0.047033
     42 H15         -3.1070     2.9570     0.2890 hn         1 5QO       0.501000
     43 H16         -0.1140    -4.1530    -0.2780 ha         1 5QO       0.124000
     44 H17         -2.4200    -5.0410    -0.3730 ha         1 5QO       0.121000
     45 H18         -4.3660    -3.5050    -0.3330 ha         1 5QO       0.131000
     46 H19         -5.3000     1.8740     1.0070 hc         1 5QO       0.054700
     47 H20         -5.2430     2.1040    -0.7510 hc         1 5QO       0.054700
     48 H21         -6.1950     0.7830    -0.0610 hc         1 5QO       0.054700
@<TRIPOS>BOND
     1     1     2 1   
     2     1    10 1   
     3     1    28 1   
     4     1    29 1   
     5     2     3 1   
     6     2    30 1   
     7     3     4 2   
     8     3     5 1   
     9     5     6 1   
    10     5     9 2   
    11     6     7 2   
    12     6    31 1   
    13     7     8 1   
    14     7    20 1   
    15     8     9 1   
    16     8    32 1   
    17     9    10 1   
    18    10    11 1   
    19    10    33 1   
    20    11    12 1   
    21    11    34 1   
    22    11    35 1   
    23    12    13 2   
    24    12    36 1   
    25    13    14 1   
    26    13    37 1   
    27    14    15 1   
    28    14    16 1   
    29    14    38 1   
    30    15    39 1   
    31    15    40 1   
    32    15    41 1   
    33    16    17 1   
    34    16    42 1   
    35    17    18 ar  
    36    17    26 ar  
    37    18    19 ar  
    38    19    20 ar  
    39    19    24 ar  
    40    20    21 ar  
    41    21    22 ar  
    42    21    43 1   
    43    22    23 ar  
    44    22    44 1   
    45    23    24 ar  
    46    23    45 1   
    47    24    25 ar  
    48    25    26 ar  
    49    26    27 1   
    50    27    46 1   
    51    27    47 1   
    52    27    48 1   
@<TRIPOS>SUBSTRUCTURE
     1 5QO         1 TEMP              0 ****  ****    0 ROOT
