@<TRIPOS>MOLECULE
5QP
   47    48     1     0     0
SMALL
No Charge or Current Charge


@<TRIPOS>ATOM
      1 O2           1.3220    -2.8550     0.3960 oh         1 5QP      -0.730000
      2 C2           1.9920    -1.7430    -0.2540 c6         1 5QP       0.120300
      3 C3           3.0170    -1.0890     0.7210 c6         1 5QP       0.108300
      4 O3           4.0100    -2.0500     1.1250 oh         1 5QP      -0.669000
      5 C4           3.6840     0.1580     0.0680 c6         1 5QP       0.151300
      6 O4           4.6020     0.7510     1.0040 oh         1 5QP      -0.720000
      7 C5           2.5530     1.1370    -0.3610 c6         1 5QP       0.163300
      8 C6           3.0390     2.4740    -0.9950 c3         1 5QP       0.170600
      9 O6           1.9360     3.3490    -1.3260 oh         1 5QP      -0.732000
     10 O5           1.6790     0.4800    -1.3190 os         1 5QP      -0.457000
     11 C1           0.9860    -0.6640    -0.7910 c6         1 5QP       0.366300
     12 O1           0.0820    -0.1950     0.2280 os         1 5QP      -0.496000
     13 CAX         -1.3120    -0.1860    -0.1480 c6         1 5QP       0.198300
     14 CAT         -1.9970    -1.4910     0.3680 c6         1 5QP       0.159300
     15 OAI         -1.3250    -2.6870    -0.0820 oh         1 5QP      -0.735000
     16 CAO         -3.4820    -1.5240    -0.0810 c6         1 5QP       0.141300
     17 OAD         -4.1070    -2.7270     0.3880 oh         1 5QP      -0.666000
     18 CAN         -4.2200    -0.2870     0.4730 c6         1 5QP      -0.150400
     19 CAR         -3.5580     1.0280    -0.0140 c6         1 5QP       0.183300
     20 OAG         -4.2650     2.1270     0.5640 oh         1 5QP      -0.638000
     21 CAV         -2.0390     1.1060     0.3470 c6         1 5QP      -0.101700
     22 CAK         -1.3960     2.4010    -0.2610 c3         1 5QP       0.187600
     23 OAB         -0.2060     2.8190     0.4180 oh         1 5QP      -0.674000
     24 H21          0.3370    -2.7250     0.2480 ho         1 5QP       0.539000
     25 H22          2.5500    -2.1110    -1.1290 h1         1 5QP       0.085700
     26 H31          2.4570    -0.7470     1.6060 h1         1 5QP       0.059700
     27 H32          3.5110    -2.8920     1.2480 ho         1 5QP       0.463000
     28 H41          4.2270    -0.1620    -0.8350 h1         1 5QP       0.048700
     29 H42          5.0190    -0.0210     1.4600 ho         1 5QP       0.525000
     30 H51          1.9750     1.4010     0.5360 h1         1 5QP       0.080700
     31 H62          3.7140     2.9720    -0.2850 h1         1 5QP       0.041700
     32 H61          3.6240     2.2360    -1.8940 h1         1 5QP       0.041700
     33 H63          2.3110     4.0870    -1.8640 ho         1 5QP       0.512000
     34 H11          0.4160    -1.1350    -1.6080 h2         1 5QP       0.081700
     35 HAX1        -1.3840    -0.1800    -1.2460 h1         1 5QP       0.046700
     36 HAT1        -1.9810    -1.4590     1.4680 h1         1 5QP       0.062700
     37 HAI1        -2.0380    -3.3760    -0.0510 ho         1 5QP       0.530000
     38 HAO1        -3.5190    -1.4910    -1.1810 h1         1 5QP       0.040700
     39 HAD1        -5.0530    -2.6820     0.1230 ho         1 5QP       0.453000
     40 HAN1        -5.2710    -0.3110     0.1520 hc         1 5QP       0.059200
     41 H1          -4.2260    -0.3170     1.5720 hc         1 5QP       0.059200
     42 HAR1        -3.6510     1.0700    -1.1100 h1         1 5QP       0.023700
     43 HAG1        -5.1960     2.0570     0.2620 ho         1 5QP       0.439000
     44 HAV1        -1.9440     1.1760     1.4390 hc         1 5QP       0.095700
     45 HAK1        -1.1860     2.2250    -1.3240 h1         1 5QP       0.030200
     46 HAK2        -2.1250     3.2210    -0.2150 h1         1 5QP       0.030200
     47 HAB1         0.4990     2.9300    -0.2750 ho         1 5QP       0.469000
@<TRIPOS>BOND
     1     1     2 1   
     2     1    24 1   
     3     2     3 1   
     4     2    11 1   
     5     2    25 1   
     6     3     4 1   
     7     3     5 1   
     8     3    26 1   
     9     4    27 1   
    10     5     6 1   
    11     5     7 1   
    12     5    28 1   
    13     6    29 1   
    14     7     8 1   
    15     7    10 1   
    16     7    30 1   
    17     8     9 1   
    18     8    31 1   
    19     8    32 1   
    20     9    33 1   
    21    10    11 1   
    22    11    12 1   
    23    11    34 1   
    24    12    13 1   
    25    13    14 1   
    26    13    21 1   
    27    13    35 1   
    28    14    15 1   
    29    14    16 1   
    30    14    36 1   
    31    15    37 1   
    32    16    17 1   
    33    16    18 1   
    34    16    38 1   
    35    17    39 1   
    36    18    19 1   
    37    18    40 1   
    38    18    41 1   
    39    19    20 1   
    40    19    21 1   
    41    19    42 1   
    42    20    43 1   
    43    21    22 1   
    44    21    44 1   
    45    22    23 1   
    46    22    45 1   
    47    22    46 1   
    48    23    47 1   
@<TRIPOS>SUBSTRUCTURE
     1 5QP         1 TEMP              0 ****  ****    0 ROOT
