@<TRIPOS>MOLECULE
5QP
   47    48     1     0     0
SMALL
bcc


@<TRIPOS>ATOM
      1 O2           1.3890    -2.8990    -0.4550 oh         1 5QP      -0.607800
      2 C2           1.9860    -1.6470    -0.6640 c6         1 5QP       0.097100
      3 C3           2.7850    -1.1790     0.5510 c6         1 5QP       0.085100
      4 O3           3.8110    -2.0880     0.8800 oh         1 5QP      -0.606800
      5 C4           3.4430     0.1620     0.2470 c6         1 5QP       0.128100
      6 O4           4.0830     0.7030     1.3760 oh         1 5QP      -0.597800
      7 C5           2.3810     1.1600    -0.2140 c6         1 5QP       0.140100
      8 C6           2.9940     2.4670    -0.6670 c3         1 5QP       0.147400
      9 O6           1.9620     3.3460    -1.0730 oh         1 5QP      -0.609800
     10 O5           1.6630     0.6300    -1.3170 os         1 5QP      -0.410600
     11 C1           0.9830    -0.5650    -1.0680 c6         1 5QP       0.319900
     12 O1           0.0460    -0.4220    -0.0450 os         1 5QP      -0.449600
     13 CAX         -1.3380    -0.3570    -0.3380 c6         1 5QP       0.175100
     14 CAT         -2.0010    -1.5090     0.4080 c6         1 5QP       0.136100
     15 OAI         -1.4410    -2.7110    -0.0760 oh         1 5QP      -0.612800
     16 CAO         -3.5100    -1.4840     0.2240 c6         1 5QP       0.118100
     17 OAD         -4.0280    -2.5820     0.9460 oh         1 5QP      -0.603800
     18 CAN         -4.0580    -0.1550     0.7160 c6         1 5QP      -0.150400
     19 CAR         -3.4260     1.0100    -0.0340 c6         1 5QP       0.160100
     20 OAG         -3.8790     2.2490     0.4700 oh         1 5QP      -0.575800
     21 CAV         -1.9020     1.0050     0.0820 c6         1 5QP      -0.101700
     22 CAK         -1.2760     2.1620    -0.7230 c3         1 5QP       0.164400
     23 OAB         -0.5920     3.0680     0.1130 oh         1 5QP      -0.611800
     24 H21          0.4890    -2.7840    -0.1080 ho         1 5QP       0.440000
     25 H22          2.6860    -1.7630    -1.5010 h1         1 5QP       0.085700
     26 H31          2.1020    -1.0440     1.4030 h1         1 5QP       0.059700
     27 H32          3.4020    -2.9070     1.1790 ho         1 5QP       0.424000
     28 H41          4.1590     0.0120    -0.5780 h1         1 5QP       0.048700
     29 H42          4.7380     0.0680     1.6820 ho         1 5QP       0.426000
     30 H51          1.6990     1.3600     0.6230 h1         1 5QP       0.080700
     31 H62          3.5680     2.8880     0.1630 h1         1 5QP       0.041700
     32 H61          3.6930     2.2790    -1.4920 h1         1 5QP       0.041700
     33 H63          2.3160     4.2400    -1.1070 ho         1 5QP       0.413000
     34 H11          0.4940    -0.8330    -2.0130 h2         1 5QP       0.081700
     35 HAX1        -1.5000    -0.4990    -1.4180 h1         1 5QP       0.046700
     36 HAT1        -1.7860    -1.3890     1.4820 h1         1 5QP       0.062700
     37 HAI1        -1.8560    -3.4460     0.3880 ho         1 5QP       0.431000
     38 HAO1        -3.7310    -1.5930    -0.8480 h1         1 5QP       0.040700
     39 HAD1        -4.9410    -2.7220     0.6790 ho         1 5QP       0.414000
     40 HAN1        -5.1450    -0.1310     0.5840 hc         1 5QP       0.059200
     41 H1          -3.8590    -0.0500     1.7880 hc         1 5QP       0.059200
     42 HAR1        -3.6860     0.9160    -1.1010 h1         1 5QP       0.023700
     43 HAG1        -4.8240     2.3150     0.2990 ho         1 5QP       0.400000
     44 HAV1        -1.6490     1.1530     1.1390 hc         1 5QP       0.095700
     45 HAK1        -0.6050     1.7640    -1.4900 h1         1 5QP       0.030200
     46 HAK2        -2.0680     2.6870    -1.2700 h1         1 5QP       0.030200
     47 HAB1         0.2910     3.2170    -0.2560 ho         1 5QP       0.430000
@<TRIPOS>BOND
     1     1     2 1   
     2     1    24 1   
     3     2     3 1   
     4     2    11 1   
     5     2    25 1   
     6     3     4 1   
     7     3     5 1   
     8     3    26 1   
     9     4    27 1   
    10     5     6 1   
    11     5     7 1   
    12     5    28 1   
    13     6    29 1   
    14     7     8 1   
    15     7    10 1   
    16     7    30 1   
    17     8     9 1   
    18     8    31 1   
    19     8    32 1   
    20     9    33 1   
    21    10    11 1   
    22    11    12 1   
    23    11    34 1   
    24    12    13 1   
    25    13    14 1   
    26    13    21 1   
    27    13    35 1   
    28    14    15 1   
    29    14    16 1   
    30    14    36 1   
    31    15    37 1   
    32    16    17 1   
    33    16    18 1   
    34    16    38 1   
    35    17    39 1   
    36    18    19 1   
    37    18    40 1   
    38    18    41 1   
    39    19    20 1   
    40    19    21 1   
    41    19    42 1   
    42    20    43 1   
    43    21    22 1   
    44    21    44 1   
    45    22    23 1   
    46    22    45 1   
    47    22    46 1   
    48    23    47 1   
@<TRIPOS>SUBSTRUCTURE
     1 5QP         1 TEMP              0 ****  ****    0 ROOT
