@<TRIPOS>MOLECULE
5QQ
   40    44     1     0     0
SMALL
No Charge or Current Charge


@<TRIPOS>ATOM
      1 C13          1.0580     0.5720     0.3070 c3         1 5QQ       0.264000
      2 C17          3.2360     0.5080     1.6620 ca         1 5QQ      -0.064000
      3 C21          7.5340     0.5260    -0.4240 ca         1 5QQ       0.362900
      4 C22          6.9710     0.5740    -1.7080 ca         1 5QQ      -0.169000
      5 C24          4.7940     0.5690    -0.6710 ca         1 5QQ      -0.094000
      6 C28         -4.2580     1.2510    -0.0130 ca         1 5QQ      -0.046000
      7 C02         -6.6760     1.4240    -0.1670 ca         1 5QQ       0.200000
      8 C03         -6.7690     0.0320    -0.2570 ca         1 5QQ      -0.158500
      9 C04         -5.6070    -0.7600    -0.2250 ca         1 5QQ      -0.046000
     10 C05         -4.3210    -0.1680    -0.1020 ca         1 5QQ      -0.184500
     11 C06         -3.0720    -0.9840    -0.0660 cc         1 5QQ       0.336500
     12 C07         -3.1210    -2.4520    -0.1580 cc         1 5QQ       0.341900
     13 N08         -2.0750    -3.2910    -0.1370 nd         1 5QQ      -0.562000
     14 C09         -0.9320    -2.5270    -0.0130 cd         1 5QQ       0.310500
     15 N10          0.2860    -3.0420     0.0390 nc         1 5QQ      -0.032000
     16 N11          1.1840    -1.9670     0.1640 nc         1 5QQ      -0.316700
     17 C12          0.4780    -0.8310     0.1840 cd         1 5QQ       0.275800
     18 F14          0.6710     1.3230    -0.7520 f          1 5QQ      -0.099000
     19 F15          0.5280     1.1940     1.3880 f          1 5QQ      -0.099000
     20 C16          2.5950     0.5670     0.4070 ca         1 5QQ      -0.150300
     21 C18          4.6390     0.4880     1.7470 ca         1 5QQ      -0.081000
     22 C19          5.4370     0.5200     0.5910 ca         1 5QQ       0.287000
     23 N20          6.7880     0.4990     0.7050 nb         1 5QQ      -0.661000
     24 C23          5.5750     0.5960    -1.8400 ca         1 5QQ      -0.051000
     25 C25          3.3890     0.5900    -0.7600 ca         1 5QQ      -0.034000
     26 N26         -0.8440    -1.1730     0.0740 na         1 5QQ      -0.048500
     27 N27         -1.9180    -0.2980     0.0530 nd         1 5QQ      -0.412800
     28 C29         -5.4250     2.0350    -0.0460 ca         1 5QQ      -0.158500
     29 H1           2.6530     0.4720     2.5810 ha         1 5QQ       0.128000
     30 H2           8.6150     0.5080    -0.2920 h4         1 5QQ       0.021100
     31 H3           7.6140     0.5930    -2.5830 ha         1 5QQ       0.126000
     32 H4          -3.3070     1.7700     0.0820 ha         1 5QQ       0.130500
     33 H5          -7.7450    -0.4370    -0.3510 ha         1 5QQ       0.141000
     34 H6          -5.7430    -1.8340    -0.2990 ha         1 5QQ       0.130500
     35 H7          -4.0490    -2.9910    -0.2530 h4         1 5QQ       0.050100
     36 H8           5.1160     0.4440     2.7220 ha         1 5QQ       0.137000
     37 H9           5.1140     0.6330    -2.8250 ha         1 5QQ       0.122000
     38 H10          2.9160     0.6180    -1.7400 ha         1 5QQ       0.130000
     39 H11         -5.3570     3.1170     0.0240 ha         1 5QQ       0.141000
     40 F01         -7.7960     2.1790    -0.1980 f          1 5QQ      -0.168000
@<TRIPOS>BOND
     1     1    17 1   
     2     1    18 1   
     3     1    19 1   
     4     1    20 1   
     5     2    20 ar  
     6     2    21 ar  
     7     2    29 1   
     8     3     4 ar  
     9     3    23 ar  
    10     3    30 1   
    11     4    24 ar  
    12     4    31 1   
    13     5    22 ar  
    14     5    24 ar  
    15     5    25 ar  
    16     6    10 ar  
    17     6    28 ar  
    18     6    32 1   
    19     7     8 ar  
    20     7    28 ar  
    21     7    40 1   
    22     8     9 ar  
    23     8    33 1   
    24     9    10 ar  
    25     9    34 1   
    26    10    11 1   
    27    11    12 1   
    28    11    27 2   
    29    12    13 2   
    30    12    35 1   
    31    13    14 1   
    32    14    15 2   
    33    14    26 1   
    34    15    16 1   
    35    16    17 2   
    36    17    26 1   
    37    20    25 ar  
    38    21    22 ar  
    39    21    36 1   
    40    22    23 ar  
    41    24    37 1   
    42    25    38 1   
    43    26    27 1   
    44    28    39 1   
@<TRIPOS>SUBSTRUCTURE
     1 5QQ         1 TEMP              0 ****  ****    0 ROOT
