@<TRIPOS>MOLECULE
5QQ
   40    44     1     0     0
SMALL
abcg2


@<TRIPOS>ATOM
      1 C13          1.0430     0.4360    -0.0460 c3         1 5QQ       0.264000
      2 C17          3.0740     0.2590     1.4040 ca         1 5QQ      -0.064000
      3 C21          7.4410     0.6310    -0.2750 ca         1 5QQ       0.362900
      4 C22          7.0040     0.8280    -1.6020 ca         1 5QQ      -0.169000
      5 C24          4.7620     0.6400    -0.7840 ca         1 5QQ      -0.094000
      6 C28         -4.1950     1.2130     0.2950 ca         1 5QQ      -0.046000
      7 C02         -6.5040     1.4540    -0.2240 ca         1 5QQ       0.200000
      8 C03         -6.6100     0.1140    -0.5420 ca         1 5QQ      -0.158500
      9 C04         -5.4830    -0.6840    -0.4330 ca         1 5QQ      -0.046000
     10 C05         -4.2660    -0.1470    -0.0140 ca         1 5QQ      -0.184500
     11 C06         -3.0660    -0.9850     0.0870 cc         1 5QQ       0.336500
     12 C07         -3.1610    -2.4160     0.2930 cc         1 5QQ       0.341900
     13 N08         -2.1280    -3.1830     0.3960 nd         1 5QQ      -0.562000
     14 C09         -0.9390    -2.5660     0.3110 cd         1 5QQ       0.310500
     15 N10          0.2690    -3.0660     0.3820 nc         1 5QQ      -0.032000
     16 N11          1.1220    -2.0390     0.2610 nc         1 5QQ      -0.316700
     17 C12          0.4550    -0.9260     0.1170 cd         1 5QQ       0.275800
     18 F14          0.6720     0.9240    -1.2590 f          1 5QQ      -0.099000
     19 F15          0.4740     1.2630     0.8770 f          1 5QQ      -0.099000
     20 C16          2.5350     0.4470     0.1100 ca         1 5QQ      -0.150300
     21 C18          4.4250     0.2620     1.5980 ca         1 5QQ      -0.081000
     22 C19          5.3060     0.4540     0.5090 ca         1 5QQ       0.287000
     23 N20          6.6390     0.4520     0.7410 nb         1 5QQ      -0.661000
     24 C23          5.6620     0.8310    -1.8550 ca         1 5QQ      -0.051000
     25 C25          3.3610     0.6310    -0.9640 ca         1 5QQ      -0.034000
     26 N26         -0.8700    -1.2090     0.1400 na         1 5QQ      -0.048500
     27 N27         -1.9110    -0.3980     0.0130 nd         1 5QQ      -0.412800
     28 C29         -5.3130     2.0200     0.1940 ca         1 5QQ      -0.158500
     29 H1           2.4170     0.1080     2.2500 ha         1 5QQ       0.128000
     30 H2           8.5050     0.6260    -0.0630 h4         1 5QQ       0.021100
     31 H3           7.7290     0.9700    -2.3910 ha         1 5QQ       0.126000
     32 H4          -3.2620     1.6450     0.6290 ha         1 5QQ       0.130500
     33 H5          -7.5520    -0.3010    -0.8740 ha         1 5QQ       0.141000
     34 H6          -5.5720    -1.7280    -0.7040 ha         1 5QQ       0.130500
     35 H7          -4.1350    -2.8800     0.3880 h4         1 5QQ       0.050100
     36 H8           4.8430     0.1170     2.5860 ha         1 5QQ       0.137000
     37 H9           5.2820     0.9790    -2.8590 ha         1 5QQ       0.122000
     38 H10          2.9680     0.7690    -1.9620 ha         1 5QQ       0.130000
     39 H11         -5.2610     3.0720     0.4420 ha         1 5QQ       0.141000
     40 F01         -7.5880     2.2300    -0.3240 f          1 5QQ      -0.168000
@<TRIPOS>BOND
     1     1    17 1   
     2     1    18 1   
     3     1    19 1   
     4     1    20 1   
     5     2    20 ar  
     6     2    21 ar  
     7     2    29 1   
     8     3     4 ar  
     9     3    23 ar  
    10     3    30 1   
    11     4    24 ar  
    12     4    31 1   
    13     5    22 ar  
    14     5    24 ar  
    15     5    25 ar  
    16     6    10 ar  
    17     6    28 ar  
    18     6    32 1   
    19     7     8 ar  
    20     7    28 ar  
    21     7    40 1   
    22     8     9 ar  
    23     8    33 1   
    24     9    10 ar  
    25     9    34 1   
    26    10    11 1   
    27    11    12 1   
    28    11    27 2   
    29    12    13 2   
    30    12    35 1   
    31    13    14 1   
    32    14    15 2   
    33    14    26 1   
    34    15    16 1   
    35    16    17 2   
    36    17    26 1   
    37    20    25 ar  
    38    21    22 ar  
    39    21    36 1   
    40    22    23 ar  
    41    24    37 1   
    42    25    38 1   
    43    26    27 1   
    44    28    39 1   
@<TRIPOS>SUBSTRUCTURE
     1 5QQ         1 TEMP              0 ****  ****    0 ROOT
