@<TRIPOS>MOLECULE
5QR
   31    32     1     0     0
SMALL
bcc


@<TRIPOS>ATOM
      1 C10          3.5630    -2.2630     0.5720 ca         1 5QR      -0.144000
      2 C13          4.7530     1.1940    -0.5010 c          1 5QR       0.923200
      3 C17         -2.5900    -1.2120    -0.6490 cc         1 5QR      -0.010000
      4 C19         -4.8400    -0.3390    -0.2810 c          1 5QR       0.693700
      5 N02         -4.2230     0.7900     0.2650 n          1 5QR      -0.335000
      6 C01         -5.0950     1.8520     0.7510 c3         1 5QR       0.074300
      7 C18         -3.9340    -1.3510    -0.7500 cd         1 5QR      -0.293200
      8 C04         -2.0220    -0.0460    -0.0740 cc         1 5QR      -0.273200
      9 C03         -2.8890     0.9210     0.3530 cd         1 5QR       0.075600
     10 C05         -0.5710     0.2210     0.0790 c          1 5QR       0.692300
     11 O06         -0.1530     1.3450     0.3080 o          1 5QR      -0.583100
     12 N07          0.2310    -0.8670    -0.0420 ns         1 5QR      -0.459100
     13 C08          1.6290    -0.9190     0.0670 ca         1 5QR       0.015600
     14 C16          2.4670     0.1460    -0.2530 ca         1 5QR      -0.104000
     15 C12          3.8490     0.0150    -0.1500 ca         1 5QR      -0.119600
     16 O15          5.9780     1.0090    -0.3780 o          1 5QR      -0.821800
     17 O14          4.1890     2.2380    -0.8800 o          1 5QR      -0.821800
     18 C11          4.3950    -1.1960     0.2660 ca         1 5QR      -0.117000
     19 C09          2.1880    -2.1300     0.4790 ca         1 5QR      -0.204000
     20 H1           3.9830    -3.2070     0.8940 ha         1 5QR       0.104000
     21 H2          -1.9630    -2.0040    -1.0400 ha         1 5QR       0.138000
     22 H3          -5.7020     2.2450    -0.0610 h1         1 5QR       0.054700
     23 H4          -5.7500     1.4760     1.5330 h1         1 5QR       0.054700
     24 H5          -4.4840     2.6530     1.1560 h1         1 5QR       0.054700
     25 H6          -4.3700    -2.2340    -1.1960 ha         1 5QR       0.154000
     26 H7          -2.5300     1.8410     0.7910 h4         1 5QR       0.176000
     27 H8          -0.2180    -1.7690    -0.0540 hn         1 5QR       0.299500
     28 H9           2.0640     1.0850    -0.5960 ha         1 5QR       0.174000
     29 H11          5.4680    -1.3020     0.3450 ha         1 5QR       0.148000
     30 H12          1.5440    -2.9660     0.7280 ha         1 5QR       0.097000
     31 O20         -6.0620    -0.4010    -0.3340 o          1 5QR      -0.643500
@<TRIPOS>BOND
     1     1    18 ar  
     2     1    19 ar  
     3     1    20 1   
     4     2    15 1   
     5     2    16 1   
     6     2    17 1   
     7     3     7 2   
     8     3     8 1   
     9     3    21 1   
    10     4     5 1   
    11     4     7 1   
    12     4    31 2   
    13     5     6 1   
    14     5     9 1   
    15     6    22 1   
    16     6    23 1   
    17     6    24 1   
    18     7    25 1   
    19     8     9 2   
    20     8    10 1   
    21     9    26 1   
    22    10    11 2   
    23    10    12 1   
    24    12    13 1   
    25    12    27 1   
    26    13    14 ar  
    27    13    19 ar  
    28    14    15 ar  
    29    14    28 1   
    30    15    18 ar  
    31    18    29 1   
    32    19    30 1   
@<TRIPOS>SUBSTRUCTURE
     1 5QR         1 TEMP              0 ****  ****    0 ROOT
