@<TRIPOS>MOLECULE
5QR
   31    32     1     0     0
SMALL
No Charge or Current Charge


@<TRIPOS>ATOM
      1 C10          3.5800    -2.3930    -0.1560 ca         1 5QR      -0.126000
      2 C13          4.9260     1.1980     0.0950 c          1 5QR       0.712600
      3 C17         -2.5460    -1.3360    -0.0240 cc         1 5QR      -0.060000
      4 C19         -4.8930    -0.4590     0.0630 c          1 5QR       0.551200
      5 N02         -4.3440     0.8370     0.1540 n          1 5QR      -0.268000
      6 C01         -5.2780     1.9830     0.2480 c3         1 5QR       0.074300
      7 C18         -3.9060    -1.5460    -0.0270 cd         1 5QR      -0.343200
      8 C04         -2.0480     0.0160     0.0730 cc         1 5QR      -0.273200
      9 C03         -2.9640     1.0530     0.1580 cd         1 5QR       0.025600
     10 C05         -0.5920     0.3540     0.0850 c          1 5QR       0.625300
     11 O06         -0.1950     1.5100     0.1670 o          1 5QR      -0.583100
     12 N07          0.2550    -0.7480    -0.0050 ns         1 5QR      -0.133000
     13 C08          1.6730    -0.8780    -0.0270 ca         1 5QR      -0.077000
     14 C16          2.5670     0.2160     0.0450 ca         1 5QR      -0.086000
     15 C12          3.9700     0.0160     0.0170 ca         1 5QR      -0.119600
     16 O15          6.1300     0.9810     0.0680 o          1 5QR      -0.716500
     17 O14          4.4600     2.3260     0.1830 o          1 5QR      -0.716500
     18 C11          4.4630    -1.3050    -0.0840 ca         1 5QR      -0.099000
     19 C09          2.1950    -2.1800    -0.1280 ca         1 5QR      -0.186000
     20 H1           3.9720    -3.4050    -0.2340 ha         1 5QR       0.086000
     21 H2          -1.8710    -2.1870    -0.0930 ha         1 5QR       0.188000
     22 H3          -5.9210     2.0080    -0.6410 h1         1 5QR       0.054700
     23 H4          -5.9050     1.8750     1.1420 h1         1 5QR       0.054700
     24 H5          -4.7300     2.9310     0.3130 h1         1 5QR       0.054700
     25 H6          -4.3320    -2.5410    -0.0970 ha         1 5QR       0.204000
     26 H7          -2.6850     2.1020     0.2330 h4         1 5QR       0.226000
     27 H8          -0.2270    -1.6330    -0.0660 hn         1 5QR       0.133000
     28 H9           2.1910     1.2310     0.1230 ha         1 5QR       0.156000
     29 H11          5.5340    -1.4930    -0.1080 ha         1 5QR       0.130000
     30 H12          1.5230    -3.0330    -0.1840 ha         1 5QR       0.079000
     31 O20         -6.0970    -0.6760     0.0570 o          1 5QR      -0.568000
@<TRIPOS>BOND
     1     1    18 ar  
     2     1    19 ar  
     3     1    20 1   
     4     2    15 1   
     5     2    16 1   
     6     2    17 1   
     7     3     7 2   
     8     3     8 1   
     9     3    21 1   
    10     4     5 1   
    11     4     7 1   
    12     4    31 2   
    13     5     6 1   
    14     5     9 1   
    15     6    22 1   
    16     6    23 1   
    17     6    24 1   
    18     7    25 1   
    19     8     9 2   
    20     8    10 1   
    21     9    26 1   
    22    10    11 2   
    23    10    12 1   
    24    12    13 1   
    25    12    27 1   
    26    13    14 ar  
    27    13    19 ar  
    28    14    15 ar  
    29    14    28 1   
    30    15    18 ar  
    31    18    29 1   
    32    19    30 1   
@<TRIPOS>SUBSTRUCTURE
     1 5QR         1 TEMP              0 ****  ****    0 ROOT
