@<TRIPOS>MOLECULE
5QS
   54    57     1     0     0
SMALL
abcg2


@<TRIPOS>ATOM
      1 C1           6.8950    -0.0720    -0.4530 c3         1 5QS       0.167000
      2 C2           6.7210    -0.9610    -1.6770 c3         1 5QS      -0.102100
      3 C3           5.6180     0.7300    -0.1680 c3         1 5QS       0.203800
      4 C11         -5.2600    -0.0240    -0.2990 ca         1 5QS       0.359000
      5 C12         -5.9110    -1.1940    -0.7100 ca         1 5QS      -0.214500
      6 C13         -7.2870    -1.2070    -0.8030 ca         1 5QS       0.357400
      7 C14         -7.4390     0.9430    -0.1370 ca         1 5QS       0.357400
      8 C15         -6.0670     1.0780    -0.0040 ca         1 5QS      -0.214500
      9 C16          1.1000    -0.3910     0.7610 ca         1 5QS       0.228300
     10 C17          0.2120    -1.4750     1.3010 c3         1 5QS      -0.099700
     11 C18         -0.2340    -2.4210     0.2060 cx         1 5QS      -0.116700
     12 C19         -0.4310    -3.8730     0.5130 cx         1 5QS      -0.130400
     13 C20          0.7220    -3.4340    -0.3390 cx         1 5QS      -0.130400
     14 O            7.1670    -0.9450     0.6370 oh         1 5QS      -0.663000
     15 C            8.0510     0.9010    -0.6580 c3         1 5QS      -0.102100
     16 N            4.5310    -0.1510     0.1790 nu         1 5QS      -0.905100
     17 C4           3.2430     0.2140     0.2310 ca         1 5QS       0.398900
     18 N6           2.3840    -0.6950     0.7100 nb         1 5QS      -0.266000
     19 C6           0.6430     0.8750     0.3420 cp         1 5QS      -0.345500
     20 C5           1.6310     1.7400    -0.1240 ca         1 5QS       0.173900
     21 N1           2.9110     1.4380    -0.1960 nb         1 5QS      -0.252000
     22 C7          -0.7500     1.3300     0.3800 cp         1 5QS       0.257500
     23 N5          -1.7090     0.4660     0.0770 nb         1 5QS      -0.249000
     24 C10         -2.9680     0.8980     0.1060 ca         1 5QS       0.387900
     25 N2          -3.3670     2.1270     0.3970 nb         1 5QS      -0.227000
     26 C9          -2.4020     2.9900     0.6960 ca         1 5QS       0.146900
     27 C8          -1.0660     2.6520     0.7120 ca         1 5QS      -0.269000
     28 N3          -3.8870    -0.0650    -0.2150 nu         1 5QS      -0.928900
     29 N4          -8.0630    -0.1630    -0.5250 nb         1 5QS      -0.685000
     30 H1           6.5280    -0.3550    -2.5620 hc         1 5QS       0.047367
     31 H2           7.6270    -1.5410    -1.8610 hc         1 5QS       0.047367
     32 H3           5.8910    -1.6570    -1.5600 hc         1 5QS       0.047367
     33 H4           5.8100     1.4500     0.6390 h1         1 5QS       0.056200
     34 H5           5.3500     1.3130    -1.0490 h1         1 5QS       0.056200
     35 H6          -5.3460    -2.0850    -0.9570 ha         1 5QS       0.138000
     36 H7          -7.7870    -2.1150    -1.1230 h4         1 5QS       0.016600
     37 H8          -8.0690     1.7960     0.0930 h4         1 5QS       0.016600
     38 H9          -5.6480     2.0150     0.3200 ha         1 5QS       0.138000
     39 H10          0.7860    -2.0310     2.0460 hc         1 5QS       0.064200
     40 H11         -0.6600    -1.0590     1.8040 hc         1 5QS       0.064200
     41 H12         -0.9250    -1.9780    -0.5000 hc         1 5QS       0.088700
     42 H13         -0.2170    -4.2160     1.5190 hc         1 5QS       0.071700
     43 H14         -1.2560    -4.3890     0.0380 hc         1 5QS       0.071700
     44 H15          0.6900    -3.6500    -1.3990 hc         1 5QS       0.071700
     45 H16          1.7160    -3.4690     0.0910 hc         1 5QS       0.071700
     46 H17          7.3620    -0.4110     1.4150 ho         1 5QS       0.443000
     47 H18          8.2040     1.5250     0.2270 hc         1 5QS       0.047367
     48 H19          8.9770     0.3610    -0.8560 hc         1 5QS       0.047367
     49 H20          7.8640     1.5670    -1.5020 hc         1 5QS       0.047367
     50 H21          4.7660    -1.0160     0.6420 hn         1 5QS       0.517000
     51 H22          1.3570     2.7280    -0.4800 h4         1 5QS       0.021100
     52 H23         -2.7170     3.9970     0.9440 h4         1 5QS       0.025100
     53 H24         -0.3130     3.3740     0.9910 ha         1 5QS       0.137000
     54 H25         -3.4630    -0.9530    -0.4400 hn         1 5QS       0.512000
@<TRIPOS>BOND
     1     1     2 1   
     2     1     3 1   
     3     1    14 1   
     4     1    15 1   
     5     2    30 1   
     6     2    31 1   
     7     2    32 1   
     8     3    16 1   
     9     3    33 1   
    10     3    34 1   
    11     4     5 ar  
    12     4     8 ar  
    13     4    28 1   
    14     5     6 ar  
    15     5    35 1   
    16     6    29 ar  
    17     6    36 1   
    18     7     8 ar  
    19     7    29 ar  
    20     7    37 1   
    21     8    38 1   
    22     9    10 1   
    23     9    18 ar  
    24     9    19 ar  
    25    10    11 1   
    26    10    39 1   
    27    10    40 1   
    28    11    12 1   
    29    11    13 1   
    30    11    41 1   
    31    12    13 1   
    32    12    42 1   
    33    12    43 1   
    34    13    44 1   
    35    13    45 1   
    36    14    46 1   
    37    15    47 1   
    38    15    48 1   
    39    15    49 1   
    40    16    17 1   
    41    16    50 1   
    42    17    18 ar  
    43    17    21 ar  
    44    19    20 ar  
    45    19    22 1   
    46    20    21 ar  
    47    20    51 1   
    48    22    23 ar  
    49    22    27 ar  
    50    23    24 ar  
    51    24    25 ar  
    52    24    28 1   
    53    25    26 ar  
    54    26    27 ar  
    55    26    52 1   
    56    27    53 1   
    57    28    54 1   
@<TRIPOS>SUBSTRUCTURE
     1 5QS         1 TEMP              0 ****  ****    0 ROOT
