@<TRIPOS>MOLECULE
5QS
   54    57     1     0     0
SMALL
No Charge or Current Charge


@<TRIPOS>ATOM
      1 C1           7.0550     0.1520    -0.5040 c3         1 5QS       0.167000
      2 C2           7.3480    -1.1780    -1.2390 c3         1 5QS      -0.102100
      3 C3           5.6070     0.6650    -0.8020 c3         1 5QS       0.203800
      4 C11         -5.3460     0.0530    -0.3270 ca         1 5QS       0.359000
      5 C12         -6.0540    -1.1490    -0.3860 ca         1 5QS      -0.214500
      6 C13         -7.4410    -1.1160    -0.5720 ca         1 5QS       0.357400
      7 C14         -7.4440     1.1950    -0.6660 ca         1 5QS       0.357400
      8 C15         -6.0580     1.2480    -0.4820 ca         1 5QS      -0.214500
      9 C16          1.1460    -0.4630     0.7080 ca         1 5QS       0.228300
     10 C17          0.3050    -1.6330     1.2150 c3         1 5QS      -0.099700
     11 C18         -0.1990    -2.5330     0.0880 cx         1 5QS      -0.116700
     12 C19         -0.6510    -3.9460     0.3720 cx         1 5QS      -0.130400
     13 C20          0.6250    -3.7020    -0.3990 cx         1 5QS      -0.130400
     14 O            7.1510    -0.0910     0.9030 oh         1 5QS      -0.663000
     15 C            8.1090     1.2180    -0.8810 c3         1 5QS      -0.102100
     16 N            4.5760    -0.1290    -0.0820 nu         1 5QS      -0.905100
     17 C4           3.2510     0.2310     0.1100 ca         1 5QS       0.398900
     18 N6           2.4470    -0.7610     0.5120 nb         1 5QS      -0.266000
     19 C6           0.6530     0.8580     0.4940 cp         1 5QS      -0.345500
     20 C5           1.6110     1.8150     0.0840 ca         1 5QS       0.173900
     21 N1           2.9040     1.5080    -0.1130 nb         1 5QS      -0.252000
     22 C7          -0.7670     1.2770     0.6820 cp         1 5QS       0.257500
     23 N5          -1.7400     0.4830     0.2000 nb         1 5QS      -0.249000
     24 C10         -3.0100     0.8920     0.3450 ca         1 5QS       0.387900
     25 N2          -3.4210     2.0320     0.9310 nb         1 5QS      -0.227000
     26 C9          -2.4580     2.8430     1.4060 ca         1 5QS       0.146900
     27 C8          -1.1010     2.5040     1.2970 ca         1 5QS      -0.269000
     28 N3          -3.9620     0.0110    -0.1540 nu         1 5QS      -0.928900
     29 N4          -8.1360     0.0350    -0.7090 nb         1 5QS      -0.685000
     30 H1           7.2740    -1.0450    -2.3250 hc         1 5QS       0.047367
     31 H2           8.3600    -1.5350    -1.0110 hc         1 5QS       0.047367
     32 H3           6.6400    -1.9620    -0.9450 hc         1 5QS       0.047367
     33 H4           5.5490     1.7140    -0.4790 h1         1 5QS       0.056200
     34 H5           5.4190     0.6500    -1.8850 h1         1 5QS       0.056200
     35 H6          -5.5490    -2.1030    -0.2820 ha         1 5QS       0.138000
     36 H7          -8.0180    -2.0390    -0.6140 h4         1 5QS       0.016600
     37 H8          -8.0230     2.1090    -0.7910 h4         1 5QS       0.016600
     38 H9          -5.5620     2.2100    -0.4830 ha         1 5QS       0.138000
     39 H10          0.8970    -2.2270     1.9230 hc         1 5QS       0.064200
     40 H11         -0.5430    -1.2690     1.8050 hc         1 5QS       0.064200
     41 H12         -0.7590    -1.9870    -0.6680 hc         1 5QS       0.088700
     42 H13         -0.5640    -4.3180     1.3900 hc         1 5QS       0.071700
     43 H14         -1.5110    -4.3220    -0.1770 hc         1 5QS       0.071700
     44 H15          0.6230    -3.9130    -1.4660 hc         1 5QS       0.071700
     45 H16          1.5680    -3.9090     0.1030 hc         1 5QS       0.071700
     46 H17          6.2150    -0.0740     1.2110 ho         1 5QS       0.443000
     47 H18          7.9380     2.1510    -0.3290 hc         1 5QS       0.047367
     48 H19          9.1220     0.8680    -0.6470 hc         1 5QS       0.047367
     49 H20          8.0660     1.4440    -1.9530 hc         1 5QS       0.047367
     50 H21          4.7130    -1.1420    -0.0660 hn         1 5QS       0.517000
     51 H22          1.3290     2.8500    -0.1060 h4         1 5QS       0.021100
     52 H23         -2.7780     3.7710     1.8780 h4         1 5QS       0.025100
     53 H24         -0.3320     3.1660     1.6850 ha         1 5QS       0.137000
     54 H25         -3.5560    -0.8960    -0.3770 hn         1 5QS       0.512000
@<TRIPOS>BOND
     1     1     2 1   
     2     1     3 1   
     3     1    14 1   
     4     1    15 1   
     5     2    30 1   
     6     2    31 1   
     7     2    32 1   
     8     3    16 1   
     9     3    33 1   
    10     3    34 1   
    11     4     5 ar  
    12     4     8 ar  
    13     4    28 1   
    14     5     6 ar  
    15     5    35 1   
    16     6    29 ar  
    17     6    36 1   
    18     7     8 ar  
    19     7    29 ar  
    20     7    37 1   
    21     8    38 1   
    22     9    10 1   
    23     9    18 ar  
    24     9    19 ar  
    25    10    11 1   
    26    10    39 1   
    27    10    40 1   
    28    11    12 1   
    29    11    13 1   
    30    11    41 1   
    31    12    13 1   
    32    12    42 1   
    33    12    43 1   
    34    13    44 1   
    35    13    45 1   
    36    14    46 1   
    37    15    47 1   
    38    15    48 1   
    39    15    49 1   
    40    16    17 1   
    41    16    50 1   
    42    17    18 ar  
    43    17    21 ar  
    44    19    20 ar  
    45    19    22 1   
    46    20    21 ar  
    47    20    51 1   
    48    22    23 ar  
    49    22    27 ar  
    50    23    24 ar  
    51    24    25 ar  
    52    24    28 1   
    53    25    26 ar  
    54    26    27 ar  
    55    26    52 1   
    56    27    53 1   
    57    28    54 1   
@<TRIPOS>SUBSTRUCTURE
     1 5QS         1 TEMP              0 ****  ****    0 ROOT
