@<TRIPOS>MOLECULE
5QU
   47    50     1     0     0
SMALL
No Charge or Current Charge


@<TRIPOS>ATOM
      1 N14         -1.7420     2.2360     2.7920 n8         1 5QU      -0.975200
      2 C18          3.4480    -1.6850     0.3030 ca         1 5QU       0.217000
      3 C17          3.1900    -0.3090     0.0630 cp         1 5QU      -0.091000
      4 C16          1.8460     0.1350     0.1530 ca         1 5QU      -0.027000
      5 C15          0.7930    -0.7480     0.4760 ca         1 5QU      -0.152300
      6 C19          2.4100    -2.5680     0.6270 ca         1 5QU      -0.202000
      7 C20          1.0930    -2.1040     0.7150 ca         1 5QU       0.206000
      8 C23          4.2760     0.6640    -0.2840 cp         1 5QU      -0.141000
      9 C24          4.0830     1.6860    -1.2480 ca         1 5QU       0.124900
     10 C12         -2.0180     1.2960     1.7890 c6         1 5QU       0.546700
     11 C2          -5.1220     0.1900    -1.0590 cc         1 5QU       0.290300
     12 C3          -3.7800    -0.1980    -0.8030 cc         1 5QU      -0.224300
     13 C4          -3.8760    -1.5500    -0.5890 cd         1 5QU       0.195300
     14 O5          -5.1880    -1.9370    -0.6700 os         1 5QU      -0.076700
     15 N6          -5.9920    -0.7990    -0.9840 nd         1 5QU      -0.362300
     16 C7          -2.8820    -2.6480    -0.3200 c3         1 5QU      -0.139400
     17 C8          -2.6080     0.7860    -0.8660 c6         1 5QU       0.166600
     18 C9          -1.1710     0.1960    -0.8480 c6         1 5QU      -0.065400
     19 C10         -0.6460    -0.2230     0.5560 c6         1 5QU       0.225800
     20 N11         -0.6960     0.8840     1.5230 n7         1 5QU      -0.845400
     21 S13         -2.7890     2.1320     0.3880 ss         1 5QU      -0.403000
     22 F21          0.1160    -2.9830     1.0300 f          1 5QU      -0.175000
     23 F22          4.7000    -2.1830     0.1950 f          1 5QU      -0.164000
     24 N25          5.0480     2.5730    -1.5660 nb         1 5QU      -0.170000
     25 C26          6.2200     2.4460    -0.9110 ca         1 5QU       0.122900
     26 N27          6.5220     1.5250     0.0280 nb         1 5QU      -0.170000
     27 C28          5.5520     0.6410     0.3370 ca         1 5QU       0.124900
     28 H1          -1.1410     2.9060     2.3140 hn         1 5QU       0.408500
     29 H2          -2.6050     2.7670     2.9150 hn         1 5QU       0.408500
     30 H4           1.6210     1.1860    -0.0140 ha         1 5QU       0.151000
     31 H5           2.6280    -3.6170     0.8040 ha         1 5QU       0.155000
     32 H6           3.1400     1.7870    -1.7830 h4         1 5QU       0.030100
     33 H7          -2.6660     0.5010     2.1820 h3         1 5QU       0.014700
     34 H8          -4.8690     2.0520    -2.1300 hc         1 5QU       0.061367
     35 H9          -6.5520     1.5870    -1.8680 hc         1 5QU       0.061367
     36 H10         -5.6000     2.2190    -0.5190 hc         1 5QU       0.061367
     37 H11         -2.6400    -2.7040     0.7470 hc         1 5QU       0.064700
     38 H12         -3.3010    -3.6210    -0.6010 hc         1 5QU       0.064700
     39 H13         -1.9580    -2.5310    -0.8920 hc         1 5QU       0.064700
     40 H14         -2.6910     1.3000    -1.8340 h1         1 5QU       0.090700
     41 H15         -1.0900    -0.6310    -1.5620 hc         1 5QU       0.063700
     42 H16         -0.4990     0.9700    -1.2420 hc         1 5QU       0.063700
     43 H17         -1.2870    -1.0180     0.9510 h1         1 5QU       0.038700
     44 H18         -0.3620     0.5240     2.4170 hn         1 5QU       0.417000
     45 H20          7.0020     3.1600    -1.1640 h5         1 5QU       0.053100
     46 H21          5.7950    -0.0870     1.1080 h4         1 5QU       0.030100
     47 C1          -5.5540     1.5880    -1.4130 c3         1 5QU      -0.138400
@<TRIPOS>BOND
     1     1    10 1   
     2     1    28 1   
     3     1    29 1   
     4     2     3 ar  
     5     2     6 ar  
     6     2    23 1   
     7     3     4 ar  
     8     3     8 1   
     9     4     5 ar  
    10     4    30 1   
    11     5     7 ar  
    12     5    19 1   
    13     6     7 ar  
    14     6    31 1   
    15     7    22 1   
    16     8     9 ar  
    17     8    27 ar  
    18     9    24 ar  
    19     9    32 1   
    20    10    20 1   
    21    10    21 1   
    22    10    33 1   
    23    11    12 1   
    24    11    15 2   
    25    11    47 1   
    26    12    13 2   
    27    12    17 1   
    28    13    14 1   
    29    13    16 1   
    30    14    15 1   
    31    16    37 1   
    32    16    38 1   
    33    16    39 1   
    34    17    18 1   
    35    17    21 1   
    36    17    40 1   
    37    18    19 1   
    38    18    41 1   
    39    18    42 1   
    40    19    20 1   
    41    19    43 1   
    42    20    44 1   
    43    24    25 ar  
    44    25    26 ar  
    45    25    45 1   
    46    26    27 ar  
    47    27    46 1   
    48    34    47 1   
    49    35    47 1   
    50    36    47 1   
@<TRIPOS>SUBSTRUCTURE
     1 5QU         1 TEMP              0 ****  ****    0 ROOT
