@<TRIPOS>MOLECULE
5QU
   47    50     1     0     0
SMALL
abcg2


@<TRIPOS>ATOM
      1 N14         -1.9030     2.4870     2.5720 n8         1 5QU      -0.975200
      2 C18          3.4360    -1.6710     0.2230 ca         1 5QU       0.217000
      3 C17          3.1830    -0.3120     0.0720 cp         1 5QU      -0.091000
      4 C16          1.8590     0.1010     0.1880 ca         1 5QU      -0.027000
      5 C15          0.8120    -0.7790     0.4400 ca         1 5QU      -0.152300
      6 C19          2.4400    -2.5860     0.4780 ca         1 5QU      -0.202000
      7 C20          1.1440    -2.1170     0.5820 ca         1 5QU       0.206000
      8 C23          4.2520     0.6500    -0.2330 cp         1 5QU      -0.141000
      9 C24          4.1070     1.5870    -1.2520 ca         1 5QU       0.124900
     10 C12         -1.9440     1.4380     1.5890 c6         1 5QU       0.546700
     11 C2          -5.0330     0.3220    -1.0560 cc         1 5QU       0.290300
     12 C3          -3.7020    -0.1460    -0.8060 cc         1 5QU      -0.224300
     13 C4          -3.8940    -1.4490    -0.4610 cd         1 5QU       0.195300
     14 O5          -5.2070    -1.7170    -0.4770 os         1 5QU      -0.076700
     15 N6          -5.9090    -0.6150    -0.8540 nd         1 5QU      -0.362300
     16 C7          -3.0290    -2.5990    -0.1010 c3         1 5QU      -0.139400
     17 C8          -2.4850     0.7050    -1.0040 c6         1 5QU       0.166600
     18 C9          -1.1040     0.0600    -0.8860 c6         1 5QU      -0.065400
     19 C10         -0.6060    -0.2650     0.5300 c6         1 5QU       0.225800
     20 N11         -0.6160     0.9170     1.3800 n7         1 5QU      -0.845400
     21 S13         -2.5290     2.2080     0.0440 ss         1 5QU      -0.403000
     22 F21          0.1840    -3.0160     0.8340 f          1 5QU      -0.175000
     23 F22          4.6910    -2.1170     0.0990 f          1 5QU      -0.164000
     24 N25          5.0430     2.4780    -1.5430 nb         1 5QU      -0.170000
     25 C26          6.1470     2.4360    -0.8150 ca         1 5QU       0.122900
     26 N27          6.3970     1.5970     0.1790 nb         1 5QU      -0.170000
     27 C28          5.4530     0.7130     0.4680 ca         1 5QU       0.124900
     28 H1          -2.8460     2.7930     2.7770 hn         1 5QU       0.408500
     29 H2          -1.5390     2.1170     3.4430 hn         1 5QU       0.408500
     30 H4           1.6310     1.1560     0.0990 ha         1 5QU       0.151000
     31 H5           2.6630    -3.6400     0.5880 ha         1 5QU       0.155000
     32 H6           3.2050     1.6060    -1.8550 h4         1 5QU       0.030100
     33 H7          -2.6580     0.6300     1.8330 h3         1 5QU       0.014700
     34 H8          -4.8750     1.9830    -2.3850 hc         1 5QU       0.061367
     35 H9          -6.5110     1.6630    -1.8010 hc         1 5QU       0.061367
     36 H10         -5.3090     2.4130    -0.7390 hc         1 5QU       0.061367
     37 H11         -2.7720    -2.5910     0.9590 hc         1 5QU       0.064700
     38 H12         -3.5430    -3.5370    -0.3060 hc         1 5QU       0.064700
     39 H13         -2.1070    -2.5970    -0.6760 hc         1 5QU       0.064700
     40 H14         -2.5430     1.1130    -2.0180 h1         1 5QU       0.090700
     41 H15         -1.0740    -0.8520    -1.4880 hc         1 5QU       0.063700
     42 H16         -0.3950     0.7510    -1.3470 hc         1 5QU       0.063700
     43 H17         -1.2410    -1.0500     0.9590 h1         1 5QU       0.038700
     44 H18         -0.2280     0.6570     2.2820 hn         1 5QU       0.417000
     45 H20          6.9210     3.1570    -1.0530 h5         1 5QU       0.053100
     46 H21          5.6520     0.0430     1.2970 h4         1 5QU       0.030100
     47 C1          -5.4600     1.6680    -1.5190 c3         1 5QU      -0.138400
@<TRIPOS>BOND
     1     1    10 1   
     2     1    28 1   
     3     1    29 1   
     4     2     3 ar  
     5     2     6 ar  
     6     2    23 1   
     7     3     4 ar  
     8     3     8 1   
     9     4     5 ar  
    10     4    30 1   
    11     5     7 ar  
    12     5    19 1   
    13     6     7 ar  
    14     6    31 1   
    15     7    22 1   
    16     8     9 ar  
    17     8    27 ar  
    18     9    24 ar  
    19     9    32 1   
    20    10    20 1   
    21    10    21 1   
    22    10    33 1   
    23    11    12 1   
    24    11    15 2   
    25    11    47 1   
    26    12    13 2   
    27    12    17 1   
    28    13    14 1   
    29    13    16 1   
    30    14    15 1   
    31    16    37 1   
    32    16    38 1   
    33    16    39 1   
    34    17    18 1   
    35    17    21 1   
    36    17    40 1   
    37    18    19 1   
    38    18    41 1   
    39    18    42 1   
    40    19    20 1   
    41    19    43 1   
    42    20    44 1   
    43    24    25 ar  
    44    25    26 ar  
    45    25    45 1   
    46    26    27 ar  
    47    27    46 1   
    48    34    47 1   
    49    35    47 1   
    50    36    47 1   
@<TRIPOS>SUBSTRUCTURE
     1 5QU         1 TEMP              0 ****  ****    0 ROOT
