@<TRIPOS>MOLECULE
5QV
   48    51     1     0     0
SMALL
No Charge or Current Charge


@<TRIPOS>ATOM
      1 N14          0.4110     3.8290    -0.6630 nv         1 5QV      -1.018200
      2 C18         -2.6620    -0.6910    -0.2590 cp         1 5QV      -0.088000
      3 C17         -1.5990     0.0900    -0.7770 ca         1 5QV      -0.038000
      4 C16         -0.4560    -0.4900    -1.3910 ca         1 5QV      -0.141300
      5 C15          0.8440     0.1990    -3.4710 c3         1 5QV      -0.071100
      6 C19         -2.5630    -2.1000    -0.3670 ca         1 5QV       0.213000
      7 C20         -1.4550    -2.6950    -0.9730 ca         1 5QV      -0.204000
      8 C21         -0.4160    -1.9060    -1.4810 ca         1 5QV       0.203000
      9 C24         -3.8350    -0.0180     0.3870 cp         1 5QV      -0.139000
     10 C12          0.7150     2.5250    -0.7590 c2         1 5QV       0.699100
     11 C27         -5.9440     1.2240     1.5510 ca         1 5QV       0.119900
     12 C2           4.5480     0.1360     0.8840 cc         1 5QV       0.302300
     13 C3           3.1960    -0.2670     0.9980 cc         1 5QV      -0.231300
     14 C4           3.2170    -1.2620     1.9200 cd         1 5QV       0.211300
     15 O5           4.4980    -1.4680     2.3570 os         1 5QV      -0.068700
     16 N6           5.3640    -0.5480     1.6700 nd         1 5QV      -0.363300
     17 C7           2.1040    -2.1070     2.4740 c3         1 5QV      -0.141400
     18 C8           1.9860     0.2690     0.2660 c6         1 5QV       0.186600
     19 C9           2.0730     0.0510    -1.2530 c6         1 5QV      -0.106400
     20 C10          0.7160     0.3990    -1.9310 c6         1 5QV       0.235500
     21 N11          0.4110     1.8420    -1.7900 n2         1 5QV      -0.705900
     22 S13          1.6590     2.0260     0.6540 ss         1 5QV      -0.404200
     23 F22          0.6250    -2.5490    -2.0530 f          1 5QV      -0.174000
     24 F23         -3.5250    -2.9040     0.1400 f          1 5QV      -0.166000
     25 C25         -3.6760     1.1120     1.2290 ca         1 5QV       0.123400
     26 N26         -4.7220     1.7310     1.8130 nb         1 5QV      -0.171000
     27 N28         -6.2230     0.1630     0.7650 nb         1 5QV      -0.171000
     28 C29         -5.1710    -0.4510     0.1870 ca         1 5QV       0.123400
     29 H1           0.2370     4.2390    -1.5720 hn         1 5QV       0.479500
     30 H2           1.0500     4.3450    -0.0740 hn         1 5QV       0.479500
     31 H4          -1.6940     1.1680    -0.6980 ha         1 5QV       0.143000
     32 H5           1.1590    -0.8150    -3.7380 hc         1 5QV       0.048367
     33 H6          -0.1110     0.3890    -3.9750 hc         1 5QV       0.048367
     34 H7           1.5850     0.8830    -3.9020 hc         1 5QV       0.048367
     35 H8          -1.3960    -3.7770    -1.0450 ha         1 5QV       0.153000
     36 H10         -6.7910     1.7220     2.0190 h5         1 5QV       0.052100
     37 H11          4.3970     2.0830    -0.0500 hc         1 5QV       0.059367
     38 H12          6.0490     1.5570     0.2750 hc         1 5QV       0.059367
     39 H13          5.1490     0.8310    -1.0620 hc         1 5QV       0.059367
     40 H14          1.5900    -2.6480     1.6710 hc         1 5QV       0.066033
     41 H15          2.4830    -2.8460     3.1890 hc         1 5QV       0.066033
     42 H16          1.3640    -1.4860     2.9920 hc         1 5QV       0.066033
     43 H17          1.1020    -0.2740     0.6300 h1         1 5QV       0.082700
     44 H18          2.8630     0.6800    -1.6810 hc         1 5QV       0.073200
     45 H19          2.3720    -0.9820    -1.4600 hc         1 5QV       0.073200
     46 H22         -2.6910     1.5200     1.4480 h4         1 5QV       0.032600
     47 H23         -5.4030    -1.2950    -0.4600 h4         1 5QV       0.032600
     48 C1           5.0570     1.2110    -0.0390 c3         1 5QV      -0.137400
@<TRIPOS>BOND
     1     1    10 1   
     2     1    29 1   
     3     1    30 1   
     4     2     3 ar  
     5     2     6 ar  
     6     2     9 1   
     7     3     4 ar  
     8     3    31 1   
     9     4     8 ar  
    10     4    20 1   
    11     5    20 1   
    12     5    32 1   
    13     5    33 1   
    14     5    34 1   
    15     6     7 ar  
    16     6    24 1   
    17     7     8 ar  
    18     7    35 1   
    19     8    23 1   
    20     9    25 ar  
    21     9    28 ar  
    22    10    21 2   
    23    10    22 1   
    24    11    26 ar  
    25    11    27 ar  
    26    11    36 1   
    27    12    13 1   
    28    12    16 2   
    29    12    48 1   
    30    13    14 2   
    31    13    18 1   
    32    14    15 1   
    33    14    17 1   
    34    15    16 1   
    35    17    40 1   
    36    17    41 1   
    37    17    42 1   
    38    18    19 1   
    39    18    22 1   
    40    18    43 1   
    41    19    20 1   
    42    19    44 1   
    43    19    45 1   
    44    20    21 1   
    45    25    26 ar  
    46    25    46 1   
    47    27    28 ar  
    48    28    47 1   
    49    37    48 1   
    50    38    48 1   
    51    39    48 1   
@<TRIPOS>SUBSTRUCTURE
     1 5QV         1 TEMP              0 ****  ****    0 ROOT
