@<TRIPOS>MOLECULE
5QV
   48    51     1     0     0
SMALL
abcg2


@<TRIPOS>ATOM
      1 N14          0.3490     3.6250    -0.5310 nv         1 5QV      -1.018200
      2 C18         -2.7160    -0.6000    -0.3090 cp         1 5QV      -0.088000
      3 C17         -1.6210     0.0900    -0.8270 ca         1 5QV      -0.038000
      4 C16         -0.5090    -0.5320    -1.3820 ca         1 5QV      -0.141300
      5 C15          0.8090     0.0540    -3.4380 c3         1 5QV      -0.071100
      6 C19         -2.6770    -1.9840    -0.3680 ca         1 5QV       0.213000
      7 C20         -1.6120    -2.6630    -0.9180 ca         1 5QV      -0.204000
      8 C21         -0.5560    -1.9230    -1.4130 ca         1 5QV       0.203000
      9 C24         -3.8290     0.1330     0.3110 cp         1 5QV      -0.139000
     10 C12          0.6680     2.3120    -0.6880 c2         1 5QV       0.699100
     11 C27         -5.8020     1.5350     1.4340 ca         1 5QV       0.119900
     12 C2           4.4560     0.3650     0.8670 cc         1 5QV       0.302300
     13 C3           3.2010    -0.3120     0.9600 cc         1 5QV      -0.231300
     14 C4           3.4540    -1.3360     1.8160 cd         1 5QV       0.211300
     15 O5           4.7300    -1.2840     2.2000 os         1 5QV      -0.068700
     16 N6           5.3490    -0.2210     1.6080 nd         1 5QV      -0.363300
     17 C7           2.6230    -2.4380     2.3530 c3         1 5QV      -0.141400
     18 C8           1.9110    -0.0140     0.2810 c6         1 5QV       0.186600
     19 C9           1.9850    -0.1050    -1.2330 c6         1 5QV      -0.106400
     20 C10          0.6700     0.2830    -1.9290 c6         1 5QV       0.235500
     21 N11          0.4150     1.7000    -1.7700 n2         1 5QV      -0.705900
     22 S13          1.3320     1.6410     0.8180 ss         1 5QV      -0.404200
     23 F22          0.4650    -2.6180    -1.9370 f          1 5QV      -0.174000
     24 F23         -3.6900    -2.6930     0.1420 f          1 5QV      -0.166000
     25 C25         -3.5920     1.1530     1.2270 ca         1 5QV       0.123400
     26 N26         -4.5660     1.8550     1.7850 nb         1 5QV      -0.171000
     27 N28         -6.1510     0.5860     0.5780 nb         1 5QV      -0.171000
     28 C29         -5.1690    -0.1070     0.0200 ca         1 5QV       0.123400
     29 H1           0.0990     4.1150    -1.3770 hn         1 5QV       0.479500
     30 H2           0.8740     4.1760     0.1280 hn         1 5QV       0.479500
     31 H4          -1.6570     1.1700    -0.8120 ha         1 5QV       0.143000
     32 H5           1.0240    -0.9830    -3.6870 hc         1 5QV       0.048367
     33 H6          -0.1080     0.3490    -3.9490 hc         1 5QV       0.048367
     34 H7           1.6230     0.6680    -3.8240 hc         1 5QV       0.048367
     35 H8          -1.5930    -3.7440    -0.9520 ha         1 5QV       0.153000
     36 H10         -6.6050     2.1050     1.8890 h5         1 5QV       0.052100
     37 H11          4.1280     2.3930     0.2980 hc         1 5QV       0.059367
     38 H12          5.8270     1.8950     0.3030 hc         1 5QV       0.059367
     39 H13          4.7510     1.3770    -0.9930 hc         1 5QV       0.059367
     40 H14          2.9560    -3.4020     1.9660 hc         1 5QV       0.066033
     41 H15          2.6750    -2.4770     3.4410 hc         1 5QV       0.066033
     42 H16          1.5810    -2.3090     2.0700 hc         1 5QV       0.066033
     43 H17          1.1620    -0.7230     0.6390 h1         1 5QV       0.082700
     44 H18          2.7680     0.5490    -1.6230 hc         1 5QV       0.073200
     45 H19          2.2820    -1.1230    -1.4840 hc         1 5QV       0.073200
     46 H22         -2.5760     1.4000     1.5230 h4         1 5QV       0.032600
     47 H23         -5.4580    -0.8660    -0.6980 h4         1 5QV       0.032600
     48 C1           4.8120     1.5740     0.0780 c3         1 5QV      -0.137400
@<TRIPOS>BOND
     1     1    10 1   
     2     1    29 1   
     3     1    30 1   
     4     2     3 ar  
     5     2     6 ar  
     6     2     9 1   
     7     3     4 ar  
     8     3    31 1   
     9     4     8 ar  
    10     4    20 1   
    11     5    20 1   
    12     5    32 1   
    13     5    33 1   
    14     5    34 1   
    15     6     7 ar  
    16     6    24 1   
    17     7     8 ar  
    18     7    35 1   
    19     8    23 1   
    20     9    25 ar  
    21     9    28 ar  
    22    10    21 2   
    23    10    22 1   
    24    11    26 ar  
    25    11    27 ar  
    26    11    36 1   
    27    12    13 1   
    28    12    16 2   
    29    12    48 1   
    30    13    14 2   
    31    13    18 1   
    32    14    15 1   
    33    14    17 1   
    34    15    16 1   
    35    17    40 1   
    36    17    41 1   
    37    17    42 1   
    38    18    19 1   
    39    18    22 1   
    40    18    43 1   
    41    19    20 1   
    42    19    44 1   
    43    19    45 1   
    44    20    21 1   
    45    25    26 ar  
    46    25    46 1   
    47    27    28 ar  
    48    28    47 1   
    49    37    48 1   
    50    38    48 1   
    51    39    48 1   
@<TRIPOS>SUBSTRUCTURE
     1 5QV         1 TEMP              0 ****  ****    0 ROOT
