@<TRIPOS>MOLECULE
5QW
   47    49     1     0     0
SMALL
No Charge or Current Charge


@<TRIPOS>ATOM
      1 C10         -2.7790    -0.7880    -0.2210 ca         1 5QW      -0.127000
      2 C17         -5.3090    -1.5920     0.9660 c3         1 5QW       0.061600
      3 C20          5.0820    -0.9980     1.2690 c6         1 5QW       0.134800
      4 C21          4.9970    -2.4750     0.7820 c6         1 5QW       0.152600
      5 C24          4.6540    -0.2570    -1.0460 c6         1 5QW       0.134800
      6 C01          5.5750     2.0780     0.8300 c3         1 5QW      -0.122100
      7 C02          4.2190     1.3340     0.8790 c3         1 5QW       0.173500
      8 C03          3.1110     2.1610     0.1710 c3         1 5QW       0.105000
      9 N04          1.8560     1.4100     0.1040 ns         1 5QW      -0.495900
     10 C05          0.6090     1.9540    -0.0890 c          1 5QW       0.609700
     11 O06          0.4600     3.1630    -0.2220 o          1 5QW      -0.607100
     12 C07         -0.5560     0.9810    -0.1310 ca         1 5QW      -0.106600
     13 C08         -0.3770    -0.4170     0.0090 ca         1 5QW      -0.113000
     14 C09         -1.4780    -1.2870    -0.0470 ca         1 5QW      -0.062000
     15 C11         -2.9750     0.6070    -0.3530 ca         1 5QW      -0.009000
     16 C12         -1.8670     1.4730    -0.3200 ca         1 5QW      -0.099000
     17 N13         -4.2640     1.1650    -0.5330 ns         1 5QW      -0.158000
     18 C14         -5.4670     0.7330    -0.0090 c          1 5QW       0.578000
     19 O15         -6.5420     1.0470    -0.5020 o          1 5QW      -0.535000
     20 C16         -5.3650    -0.0880     1.2790 c3         1 5QW      -0.163400
     21 S18         -4.1210    -1.9700    -0.4050 ss         1 5QW      -0.190000
     22 N19          4.2770    -0.0830     0.3980 n3         1 5QW      -0.759600
     23 O22          5.3970    -2.5720    -0.6070 os         1 5QW      -0.446000
     24 C23          4.5820    -1.7520    -1.4800 c6         1 5QW       0.152600
     25 H1          -5.0010    -2.1400     1.8670 h1         1 5QW       0.079200
     26 H2          -6.3030    -1.9550     0.6710 h1         1 5QW       0.079200
     27 H4           6.1400    -0.7000     1.2730 h1         1 5QW       0.045450
     28 H5           5.6560    -3.1090     1.3910 h1         1 5QW       0.049950
     29 H6           3.9680    -2.8470     0.8900 h1         1 5QW       0.049950
     30 H7           3.9870     0.3240    -1.6980 h1         1 5QW       0.045450
     31 H8           5.6760     0.1050    -1.2240 h1         1 5QW       0.045450
     32 H9           5.9330     2.1850    -0.2010 hc         1 5QW       0.043700
     33 H10          5.4710     3.0830     1.2550 hc         1 5QW       0.043700
     34 H11          6.3400     1.5520     1.4110 hc         1 5QW       0.043700
     35 H12          3.9250     1.3070     1.9380 h1         1 5QW       0.062700
     36 H13          2.9510     3.0990     0.7180 h1         1 5QW       0.052700
     37 H14          3.4250     2.4090    -0.8510 h1         1 5QW       0.052700
     38 H15          1.9220     0.4050     0.2040 hn         1 5QW       0.340500
     39 H16          0.6100    -0.8500     0.1490 ha         1 5QW       0.120000
     40 H17         -1.3170    -2.3600     0.0370 ha         1 5QW       0.132000
     41 H18         -2.0310     2.5440    -0.4300 ha         1 5QW       0.144000
     42 H19         -4.3370     1.8450    -1.2780 hn         1 5QW       0.168000
     43 H20         -6.2340     0.1100     1.9180 hc         1 5QW       0.075700
     44 H21         -4.4410     0.1620     1.8120 hc         1 5QW       0.075700
     45 H23          3.5410    -2.1040    -1.4400 h1         1 5QW       0.049950
     46 H24          4.9410    -1.8590    -2.5130 h1         1 5QW       0.049950
     47 H3           4.7270    -0.9490     2.3090 h1         1 5QW       0.045450
@<TRIPOS>BOND
     1     1    14 ar  
     2     1    15 ar  
     3     1    21 1   
     4     2    20 1   
     5     2    21 1   
     6     2    25 1   
     7     2    26 1   
     8     3     4 1   
     9     3    22 1   
    10     3    27 1   
    11     3    47 1   
    12     4    23 1   
    13     4    28 1   
    14     4    29 1   
    15     5    22 1   
    16     5    24 1   
    17     5    30 1   
    18     5    31 1   
    19     6     7 1   
    20     6    32 1   
    21     6    33 1   
    22     6    34 1   
    23     7     8 1   
    24     7    22 1   
    25     7    35 1   
    26     8     9 1   
    27     8    36 1   
    28     8    37 1   
    29     9    10 1   
    30     9    38 1   
    31    10    11 2   
    32    10    12 1   
    33    12    13 ar  
    34    12    16 ar  
    35    13    14 ar  
    36    13    39 1   
    37    14    40 1   
    38    15    16 ar  
    39    15    17 1   
    40    16    41 1   
    41    17    18 1   
    42    17    42 1   
    43    18    19 2   
    44    18    20 1   
    45    20    43 1   
    46    20    44 1   
    47    23    24 1   
    48    24    45 1   
    49    24    46 1   
@<TRIPOS>SUBSTRUCTURE
     1 5QW         1 TEMP              0 ****  ****    0 ROOT
