@<TRIPOS>MOLECULE
5QW
   47    49     1     0     0
SMALL
bcc


@<TRIPOS>ATOM
      1 C10         -2.6430    -0.7300    -0.5320 ca         1 5QW      -0.000100
      2 C17         -4.9230    -1.7850     0.7130 c3         1 5QW       0.013700
      3 C20          4.6980    -0.8760     1.4480 c6         1 5QW       0.134800
      4 C21          4.3320    -2.3070     1.0970 c6         1 5QW       0.129400
      5 C24          4.5750    -0.3230    -0.8660 c6         1 5QW       0.134800
      6 C01          5.5450     2.0890     0.6410 c3         1 5QW      -0.122100
      7 C02          4.1800     1.4290     0.8190 c3         1 5QW       0.173500
      8 C03          3.1140     2.2100     0.0430 c3         1 5QW       0.105000
      9 N04          1.8820     1.4600     0.0470 ns         1 5QW      -0.562900
     10 C05          0.7020     1.9570    -0.3310 c          1 5QW       0.676700
     11 O06          0.5290     3.1350    -0.6190 o          1 5QW      -0.607100
     12 C07         -0.4350     0.9800    -0.3770 ca         1 5QW      -0.106600
     13 C08         -0.2530    -0.3850    -0.5770 ca         1 5QW      -0.131000
     14 C09         -1.3500    -1.2280    -0.6480 ca         1 5QW      -0.080000
     15 C11         -2.8290     0.6420    -0.3110 ca         1 5QW       0.083600
     16 C12         -1.7240     1.4800    -0.2440 ca         1 5QW      -0.117000
     17 N13         -4.1100     1.1960    -0.2080 ns         1 5QW      -0.484100
     18 C14         -5.1410     0.7260     0.5440 c          1 5QW       0.720500
     19 O15         -6.2390     1.2510     0.5060 o          1 5QW      -0.610500
     20 C16         -4.8300    -0.4520     1.4390 c3         1 5QW      -0.163400
     21 S18         -4.0050    -1.8010    -0.8630 ss         1 5QW      -0.269000
     22 N19          4.1120     0.0170     0.4680 n3         1 5QW      -0.759600
     23 O22          4.7570    -2.6470    -0.2040 os         1 5QW      -0.399600
     24 C23          4.2170    -1.7670    -1.1640 c6         1 5QW       0.129400
     25 H1          -4.5600    -2.5830     1.3600 h1         1 5QW       0.079200
     26 H2          -5.9540    -2.0110     0.4430 h1         1 5QW       0.079200
     27 H4           5.7940    -0.7790     1.5050 h1         1 5QW       0.045450
     28 H5           4.8110    -3.0020     1.7890 h1         1 5QW       0.049950
     29 H6           3.2430    -2.4290     1.1900 h1         1 5QW       0.049950
     30 H7           4.0880     0.3120    -1.6100 h1         1 5QW       0.045450
     31 H8           5.6600    -0.1830    -0.9790 h1         1 5QW       0.045450
     32 H9           5.8440     2.1250    -0.4070 hc         1 5QW       0.043700
     33 H10          5.5190     3.1140     1.0130 hc         1 5QW       0.043700
     34 H11          6.3190     1.5580     1.1960 hc         1 5QW       0.043700
     35 H12          3.9100     1.4820     1.8790 h1         1 5QW       0.062700
     36 H13          2.9710     3.1830     0.5170 h1         1 5QW       0.052700
     37 H14          3.4450     2.4060    -0.9830 h1         1 5QW       0.052700
     38 H15          1.9980     0.4840     0.2830 hn         1 5QW       0.340500
     39 H16          0.7320    -0.8120    -0.7160 ha         1 5QW       0.138000
     40 H17         -1.2040    -2.2860    -0.8200 ha         1 5QW       0.150000
     41 H18         -1.8760     2.5400    -0.0850 ha         1 5QW       0.162000
     42 H19         -4.2790     2.0610    -0.7040 hn         1 5QW       0.334500
     43 H20         -5.5500    -0.4550     2.2580 hc         1 5QW       0.075700
     44 H21         -3.8390    -0.3430     1.8830 hc         1 5QW       0.075700
     45 H23          3.1220    -1.8670    -1.2040 h1         1 5QW       0.049950
     46 H24          4.6160    -2.0610    -2.1360 h1         1 5QW       0.049950
     47 H3           4.2990    -0.6400     2.4370 h1         1 5QW       0.045450
@<TRIPOS>BOND
     1     1    14 ar  
     2     1    15 ar  
     3     1    21 1   
     4     2    20 1   
     5     2    21 1   
     6     2    25 1   
     7     2    26 1   
     8     3     4 1   
     9     3    22 1   
    10     3    27 1   
    11     3    47 1   
    12     4    23 1   
    13     4    28 1   
    14     4    29 1   
    15     5    22 1   
    16     5    24 1   
    17     5    30 1   
    18     5    31 1   
    19     6     7 1   
    20     6    32 1   
    21     6    33 1   
    22     6    34 1   
    23     7     8 1   
    24     7    22 1   
    25     7    35 1   
    26     8     9 1   
    27     8    36 1   
    28     8    37 1   
    29     9    10 1   
    30     9    38 1   
    31    10    11 2   
    32    10    12 1   
    33    12    13 ar  
    34    12    16 ar  
    35    13    14 ar  
    36    13    39 1   
    37    14    40 1   
    38    15    16 ar  
    39    15    17 1   
    40    16    41 1   
    41    17    18 1   
    42    17    42 1   
    43    18    19 2   
    44    18    20 1   
    45    20    43 1   
    46    20    44 1   
    47    23    24 1   
    48    24    45 1   
    49    24    46 1   
@<TRIPOS>SUBSTRUCTURE
     1 5QW         1 TEMP              0 ****  ****    0 ROOT
