@<TRIPOS>MOLECULE
5QX
   22    23     1     0     0
SMALL
abcg2


@<TRIPOS>ATOM
      1 O           -3.1750    -0.0730    -0.1220 o          1 5QX      -0.543000
      2 C           -1.9840     0.1830    -0.0970 c          1 5QX       0.571000
      3 CA          -1.4720     1.5880    -0.3190 c6         1 5QX       0.106800
      4 N           -0.2680     1.8100     0.4450 nu         1 5QX      -0.910200
      5 CAJ          0.7340     0.8860     0.2210 ca         1 5QX       0.239000
      6 CAE          2.0860     1.2100     0.2230 ca         1 5QX      -0.144000
      7 CAC          3.0470     0.2280     0.0260 ca         1 5QX      -0.098000
      8 CAD          2.6610    -1.0850    -0.1960 ca         1 5QX      -0.118000
      9 CAF          1.3120    -1.4190    -0.2010 ca         1 5QX      -0.118000
     10 CAK          0.3440    -0.4470     0.0170 ca         1 5QX      -0.066000
     11 NAL         -1.0260    -0.7630     0.0940 n          1 5QX      -0.209400
     12 CAA         -1.4140    -2.1470     0.2970 c3         1 5QX       0.082300
     13 H1          -1.3310     1.7300    -1.4010 h1         1 5QX       0.067200
     14 H2          -2.2440     2.2830     0.0040 h1         1 5QX       0.067200
     15 H3           0.0410     2.7700     0.4380 hn         1 5QX       0.460000
     16 H4           2.3820     2.2390     0.3890 ha         1 5QX       0.114000
     17 H5           4.0960     0.4960     0.0350 ha         1 5QX       0.116000
     18 H6           3.4020    -1.8560    -0.3630 ha         1 5QX       0.117000
     19 H7           1.0250    -2.4470    -0.3740 ha         1 5QX       0.119000
     20 H8          -2.4540    -2.1920     0.6000 h1         1 5QX       0.049700
     21 H9          -1.2940    -2.7380    -0.6120 h1         1 5QX       0.049700
     22 H10         -0.8030    -2.5870     1.0820 h1         1 5QX       0.049700
@<TRIPOS>BOND
     1     1     2 2   
     2     2     3 1   
     3     2    11 1   
     4     3     4 1   
     5     3    13 1   
     6     3    14 1   
     7     4     5 1   
     8     4    15 1   
     9     5     6 ar  
    10     5    10 ar  
    11     6     7 ar  
    12     6    16 1   
    13     7     8 ar  
    14     7    17 1   
    15     8     9 ar  
    16     8    18 1   
    17     9    10 ar  
    18     9    19 1   
    19    10    11 1   
    20    11    12 1   
    21    12    20 1   
    22    12    21 1   
    23    12    22 1   
@<TRIPOS>SUBSTRUCTURE
     1 5QX         1 TEMP              0 ****  ****    0 ROOT
