@<TRIPOS>MOLECULE
5QX
   22    23     1     0     0
SMALL
No Charge or Current Charge


@<TRIPOS>ATOM
      1 O           -3.2470    -0.0740    -0.1300 o          1 5QX      -0.543000
      2 C           -2.0470     0.1890    -0.1220 c          1 5QX       0.571000
      3 CA          -1.5530     1.6610    -0.2880 c6         1 5QX       0.106800
      4 N           -0.2010     1.8810     0.3050 nu         1 5QX      -0.910200
      5 CAJ          0.7680     0.8830     0.2120 ca         1 5QX       0.239000
      6 CAE          2.1280     1.2320     0.2030 ca         1 5QX      -0.144000
      7 CAC          3.1100     0.2410     0.0450 ca         1 5QX      -0.098000
      8 CAD          2.7260    -1.0970    -0.1290 ca         1 5QX      -0.118000
      9 CAF          1.3660    -1.4520    -0.1180 ca         1 5QX      -0.118000
     10 CAK          0.3680    -0.4760     0.1160 ca         1 5QX      -0.066000
     11 NAL         -1.0460    -0.8120     0.0290 n          1 5QX      -0.209400
     12 CAA         -1.4720    -2.2170     0.2450 c3         1 5QX       0.082300
     13 H1          -1.5260     1.8450    -1.3720 h1         1 5QX       0.067200
     14 H2          -2.3050     2.3280     0.1570 h1         1 5QX       0.067200
     15 H3           0.1530     2.8400     0.3620 hn         1 5QX       0.460000
     16 H4           2.4250     2.2720     0.3010 ha         1 5QX       0.114000
     17 H5           4.1630     0.5130     0.0320 ha         1 5QX       0.116000
     18 H6           3.4840    -1.8620    -0.2850 ha         1 5QX       0.117000
     19 H7           1.1030    -2.4940    -0.2860 ha         1 5QX       0.119000
     20 H8          -2.4950    -2.2680     0.6370 h1         1 5QX       0.049700
     21 H9          -1.4250    -2.7640    -0.7040 h1         1 5QX       0.049700
     22 H10         -0.8110    -2.7000     0.9750 h1         1 5QX       0.049700
@<TRIPOS>BOND
     1     1     2 2   
     2     2     3 1   
     3     2    11 1   
     4     3     4 1   
     5     3    13 1   
     6     3    14 1   
     7     4     5 1   
     8     4    15 1   
     9     5     6 ar  
    10     5    10 ar  
    11     6     7 ar  
    12     6    16 1   
    13     7     8 ar  
    14     7    17 1   
    15     8     9 ar  
    16     8    18 1   
    17     9    10 ar  
    18     9    19 1   
    19    10    11 1   
    20    11    12 1   
    21    12    20 1   
    22    12    21 1   
    23    12    22 1   
@<TRIPOS>SUBSTRUCTURE
     1 5QX         1 TEMP              0 ****  ****    0 ROOT
