@<TRIPOS>MOLECULE
5QY
   22    23     1     0     0
SMALL
No Charge or Current Charge


@<TRIPOS>ATOM
      1 O           -2.9190     1.3010     0.0010 o          1 5QY      -0.543000
      2 C           -1.8550     0.6890    -0.0220 c          1 5QY       0.574000
      3 NAG         -0.6380     1.3420     0.0490 ns         1 5QY      -0.137000
      4 CAJ          0.6450     0.7510    -0.0240 ca         1 5QY      -0.066000
      5 CAE          1.8030     1.5370     0.1190 ca         1 5QY      -0.123000
      6 CAC          3.0710     0.9340     0.0450 ca         1 5QY      -0.115000
      7 CAD          3.1820    -0.4510    -0.1730 ca         1 5QY      -0.100000
      8 CAF          2.0240    -1.2360    -0.3180 ca         1 5QY      -0.143000
      9 CAK          0.7550    -0.6390    -0.2440 ca         1 5QY       0.243000
     10 N           -0.4020    -1.4120    -0.3960 nu         1 5QY      -0.916200
     11 CA          -1.7820    -0.8810    -0.1450 c6         1 5QY       0.123500
     12 CB          -2.3450    -1.5370     1.1440 c3         1 5QY      -0.125100
     13 H1          -0.6700     2.3490     0.1420 hn         1 5QY       0.161000
     14 H2           1.7220     2.6090     0.2870 ha         1 5QY       0.116000
     15 H3           3.9680     1.5400     0.1560 ha         1 5QY       0.117000
     16 H4           4.1650    -0.9150    -0.2300 ha         1 5QY       0.115000
     17 H5           2.1140    -2.3060    -0.4890 ha         1 5QY       0.114000
     18 H6          -0.2720    -2.4170    -0.5340 hn         1 5QY       0.461000
     19 H7          -2.4470    -1.1460    -0.9810 h1         1 5QY       0.092700
     20 H8          -3.3720    -1.2070     1.3380 hc         1 5QY       0.050367
     21 H9          -2.3610    -2.6300     1.0580 hc         1 5QY       0.050367
     22 H10         -1.7390    -1.2770     2.0200 hc         1 5QY       0.050367
@<TRIPOS>BOND
     1     1     2 2   
     2     2     3 1   
     3     2    11 1   
     4     3     4 1   
     5     3    13 1   
     6     4     5 ar  
     7     4     9 ar  
     8     5     6 ar  
     9     5    14 1   
    10     6     7 ar  
    11     6    15 1   
    12     7     8 ar  
    13     7    16 1   
    14     8     9 ar  
    15     8    17 1   
    16     9    10 1   
    17    10    11 1   
    18    10    18 1   
    19    11    12 1   
    20    11    19 1   
    21    12    20 1   
    22    12    21 1   
    23    12    22 1   
@<TRIPOS>SUBSTRUCTURE
     1 5QY         1 TEMP              0 ****  ****    0 ROOT
