@<TRIPOS>MOLECULE
5QY
   22    23     1     0     0
SMALL
abcg2


@<TRIPOS>ATOM
      1 O           -2.9700     1.1970    -0.3170 o          1 5QY      -0.543000
      2 C           -1.8910     0.6370    -0.2450 c          1 5QY       0.574000
      3 NAG         -0.7230     1.3120    -0.1500 ns         1 5QY      -0.137000
      4 CAJ          0.5330     0.7070    -0.0690 ca         1 5QY      -0.066000
      5 CAE          1.6590     1.4190     0.3130 ca         1 5QY      -0.123000
      6 CAC          2.9030     0.7980     0.3300 ca         1 5QY      -0.115000
      7 CAD          3.0090    -0.5370    -0.0320 ca         1 5QY      -0.100000
      8 CAF          1.8790    -1.2560    -0.4000 ca         1 5QY      -0.143000
      9 CAK          0.6300    -0.6430    -0.4290 ca         1 5QY       0.243000
     10 N           -0.5280    -1.2690    -0.8470 nu         1 5QY      -0.916200
     11 CA          -1.7580    -0.8740    -0.1870 c6         1 5QY       0.123500
     12 CB          -1.8690    -1.3430     1.2650 c3         1 5QY      -0.125100
     13 H1          -0.7730     2.3210    -0.0990 hn         1 5QY       0.161000
     14 H2           1.5640     2.4620     0.5890 ha         1 5QY       0.116000
     15 H3           3.7800     1.3600     0.6220 ha         1 5QY       0.117000
     16 H4           3.9720    -1.0300    -0.0220 ha         1 5QY       0.115000
     17 H5           1.9640    -2.3010    -0.6760 ha         1 5QY       0.114000
     18 H6          -0.4450    -2.2680    -0.9730 hn         1 5QY       0.461000
     19 H7          -2.5880    -1.2880    -0.7600 h1         1 5QY       0.092700
     20 H8          -2.8210    -1.0400     1.7000 hc         1 5QY       0.050367
     21 H9          -1.8120    -2.4310     1.3080 hc         1 5QY       0.050367
     22 H10         -1.0660    -0.9360     1.8820 hc         1 5QY       0.050367
@<TRIPOS>BOND
     1     1     2 2   
     2     2     3 1   
     3     2    11 1   
     4     3     4 1   
     5     3    13 1   
     6     4     5 ar  
     7     4     9 ar  
     8     5     6 ar  
     9     5    14 1   
    10     6     7 ar  
    11     6    15 1   
    12     7     8 ar  
    13     7    16 1   
    14     8     9 ar  
    15     8    17 1   
    16     9    10 1   
    17    10    11 1   
    18    10    18 1   
    19    11    12 1   
    20    11    19 1   
    21    12    20 1   
    22    12    21 1   
    23    12    22 1   
@<TRIPOS>SUBSTRUCTURE
     1 5QY         1 TEMP              0 ****  ****    0 ROOT
