@<TRIPOS>MOLECULE
5QZ
   48    51     1     0     0
SMALL
abcg2


@<TRIPOS>ATOM
      1 C1           8.7440    64.1480    28.8980 c3         1 5QZ       0.088300
      2 C3           9.7600    66.3600    29.1290 c3         1 5QZ       0.088300
      3 C6          11.7610    65.2190    30.9010 ca         1 5QZ      -0.145600
      4 C7          11.3370    66.1440    31.8510 ca         1 5QZ      -0.093000
      5 C8          12.2740    66.8390    32.6020 ca         1 5QZ      -0.125000
      6 C10         14.0700    65.7080    31.4480 cp         1 5QZ      -0.024000
      7 C11         13.1200    64.9960    30.7170 ca         1 5QZ      -0.055000
      8 C12         15.5100    65.4730    31.2240 cp         1 5QZ      -0.042000
      9 C13         16.4020    65.4030    32.2930 ca         1 5QZ      -0.122000
     10 C14         17.7500    65.1680    32.0640 ca         1 5QZ      -0.112000
     11 C15         18.2270    64.9840    30.7760 ca         1 5QZ      -0.101000
     12 C16         17.3420    65.0540    29.7070 ca         1 5QZ       0.060800
     13 N18         17.8300    64.8880    28.3950 na         1 5QZ       0.181000
     14 C21         18.1440    64.3650    26.2870 cc         1 5QZ      -0.204600
     15 C22         18.0460    63.8770    24.8680 c          1 5QZ       0.737600
     16 C25         17.2790    64.1980    27.3540 cd         1 5QZ      -0.105300
     17 C26         16.0320    63.4180    27.4750 cx         1 5QZ      -0.034400
     18 C27         16.0370    61.9520    27.1810 cx         1 5QZ      -0.123900
     19 C28         15.8570    62.4220    28.5880 cx         1 5QZ      -0.123900
     20 N2           9.7770    64.9610    29.5080 n          1 5QZ      -0.408800
     21 C4          10.7870    64.3550    30.1600 c          1 5QZ       0.615700
     22 O5          10.9160    63.1380    30.1990 o          1 5QZ      -0.592100
     23 C9          13.6290    66.6290    32.3990 ca         1 5QZ      -0.089000
     24 C17         15.9970    65.3160    29.9270 ca         1 5QZ      -0.108000
     25 N19         18.9960    65.4640    28.0700 nd         1 5QZ      -0.576800
     26 C20         19.1900    65.1510    26.8090 cc         1 5QZ       0.272900
     27 O23         16.9590    63.3920    24.4970 o          1 5QZ      -0.722500
     28 O24         19.0770    64.0280    24.1810 o          1 5QZ      -0.722500
     29 H31          8.5530    63.2550    29.4870 h1         1 5QZ       0.040200
     30 H29          7.8240    64.7290    28.8480 h1         1 5QZ       0.040200
     31 H30          9.0130    63.8470    27.8830 h1         1 5QZ       0.040200
     32 H34         10.6870    66.8560    29.3970 h1         1 5QZ       0.040200
     33 H32          9.6410    66.4420    28.0470 h1         1 5QZ       0.040200
     34 H33          8.9310    66.8880    29.6030 h1         1 5QZ       0.040200
     35 H35         10.2800    66.3140    32.0140 ha         1 5QZ       0.111000
     36 H36         11.9450    67.5540    33.3430 ha         1 5QZ       0.108000
     37 H38         13.4450    64.2510    30.0010 ha         1 5QZ       0.140000
     38 H39         16.0430    65.5130    33.3080 ha         1 5QZ       0.104000
     39 H40         18.4340    65.1080    32.9000 ha         1 5QZ       0.105000
     40 H41         19.2760    64.7840    30.6020 ha         1 5QZ       0.137000
     41 H44         15.1330    63.9480    27.1740 hc         1 5QZ       0.080700
     42 H46         15.1840    61.5460    26.6540 hc         1 5QZ       0.069200
     43 H45         16.9830    61.4980    26.9160 hc         1 5QZ       0.069200
     44 H48         14.8780    62.3500    29.0440 hc         1 5QZ       0.069200
     45 H47         16.6770    62.2760    29.2800 hc         1 5QZ       0.069200
     46 H37         14.3480    67.1970    32.9750 ha         1 5QZ       0.115000
     47 H42         15.3250    65.4270    29.0870 ha         1 5QZ       0.132000
     48 H43         20.0700    65.5060    26.2940 h4         1 5QZ       0.039100
@<TRIPOS>BOND
     1     1    20 1   
     2     1    29 1   
     3     1    30 1   
     4     1    31 1   
     5     2    20 1   
     6     2    32 1   
     7     2    33 1   
     8     2    34 1   
     9     3     4 ar  
    10     3     7 ar  
    11     3    21 1   
    12     4     5 ar  
    13     4    35 1   
    14     5    23 ar  
    15     5    36 1   
    16     6     7 ar  
    17     6     8 1   
    18     6    23 ar  
    19     7    37 1   
    20     8     9 ar  
    21     8    24 ar  
    22     9    10 ar  
    23     9    38 1   
    24    10    11 ar  
    25    10    39 1   
    26    11    12 ar  
    27    11    40 1   
    28    12    13 1   
    29    12    24 ar  
    30    13    16 1   
    31    13    25 1   
    32    14    15 1   
    33    14    16 2   
    34    14    26 1   
    35    15    27 1   
    36    15    28 1   
    37    16    17 1   
    38    17    18 1   
    39    17    19 1   
    40    17    41 1   
    41    18    19 1   
    42    18    42 1   
    43    18    43 1   
    44    19    44 1   
    45    19    45 1   
    46    20    21 1   
    47    21    22 2   
    48    23    46 1   
    49    24    47 1   
    50    25    26 2   
    51    26    48 1   
@<TRIPOS>SUBSTRUCTURE
     1 5QZ         1 TEMP              0 ****  ****    0 ROOT
