@<TRIPOS>MOLECULE
5QZ
   48    51     1     0     0
SMALL
No Charge or Current Charge


@<TRIPOS>ATOM
      1 C1           8.3460    64.6200    28.7200 c3         1 5QZ       0.088300
      2 C3           9.2780    66.8090    29.5090 c3         1 5QZ       0.088300
      3 C6          11.6400    65.3250    30.6530 ca         1 5QZ      -0.145600
      4 C7          11.2240    66.0700    31.7800 ca         1 5QZ      -0.093000
      5 C8          12.1710    66.6100    32.6640 ca         1 5QZ      -0.125000
      6 C10         13.9950    65.6440    31.3400 cp         1 5QZ      -0.024000
      7 C11         13.0220    65.1050    30.4600 ca         1 5QZ      -0.055000
      8 C12         15.4560    65.4120    31.1090 cp         1 5QZ      -0.042000
      9 C13         16.3490    65.2240    32.1940 ca         1 5QZ      -0.122000
     10 C14         17.7180    64.9990    31.9770 ca         1 5QZ      -0.112000
     11 C15         18.2240    64.9550    30.6680 ca         1 5QZ      -0.101000
     12 C16         17.3620    65.1340    29.5710 ca         1 5QZ       0.060800
     13 N18         17.8680    65.0840    28.2690 na         1 5QZ       0.181000
     14 C21         18.0840    64.3310    26.2590 cc         1 5QZ      -0.204600
     15 C22         18.0280    63.6440    24.9460 c          1 5QZ       0.737600
     16 C25         17.4280    64.0440    27.4340 cd         1 5QZ      -0.105300
     17 C26         16.4960    62.9130    27.7280 cx         1 5QZ      -0.034400
     18 C27         16.9660    61.4770    27.6420 cx         1 5QZ      -0.123900
     19 C28         16.6530    62.0820    28.9850 cx         1 5QZ      -0.123900
     20 N2           9.4010    65.3330    29.4740 n          1 5QZ      -0.408800
     21 C4          10.6510    64.7030    29.6860 c          1 5QZ       0.615700
     22 O5          10.9010    63.6260    29.1560 o          1 5QZ      -0.592100
     23 C9          13.5420    66.4040    32.4440 ca         1 5QZ      -0.089000
     24 C17         15.9910    65.3700    29.7970 ca         1 5QZ      -0.108000
     25 N19         18.7700    65.9700    27.7110 nd         1 5QZ      -0.576800
     26 C20         18.8700    65.4750    26.4930 cc         1 5QZ       0.272900
     27 O23         17.2790    62.6930    24.7860 o          1 5QZ      -0.722500
     28 O24         18.7280    64.0790    24.0440 o          1 5QZ      -0.722500
     29 H31          8.2210    63.6060    29.1210 h1         1 5QZ       0.040200
     30 H29          7.3910    65.1520    28.8110 h1         1 5QZ       0.040200
     31 H30          8.6250    64.5580    27.6600 h1         1 5QZ       0.040200
     32 H34         10.2670    67.2830    29.4830 h1         1 5QZ       0.040200
     33 H32          8.7090    67.1600    28.6380 h1         1 5QZ       0.040200
     34 H33          8.7490    67.1160    30.4200 h1         1 5QZ       0.040200
     35 H35         10.1680    66.2140    31.9920 ha         1 5QZ       0.111000
     36 H36         11.8410    67.1860    33.5260 ha         1 5QZ       0.108000
     37 H38         13.3480    64.5030    29.6150 ha         1 5QZ       0.140000
     38 H39         15.9740    65.2380    33.2140 ha         1 5QZ       0.104000
     39 H40         18.3860    64.8550    32.8230 ha         1 5QZ       0.105000
     40 H41         19.2850    64.7780    30.5020 ha         1 5QZ       0.137000
     41 H44         15.4750    63.1180    27.4160 hc         1 5QZ       0.080700
     42 H46         16.2720    60.7440    27.2400 hc         1 5QZ       0.069200
     43 H45         18.0100    61.2980    27.4000 hc         1 5QZ       0.069200
     44 H48         15.7460    61.7590    29.4910 hc         1 5QZ       0.069200
     45 H47         17.4920    62.2890    29.6440 hc         1 5QZ       0.069200
     46 H37         14.2580    66.8410    33.1350 ha         1 5QZ       0.115000
     47 H42         15.3380    65.5290    28.9430 ha         1 5QZ       0.132000
     48 H43         19.5200    65.9770    25.7880 h4         1 5QZ       0.039100
@<TRIPOS>BOND
     1     1    20 1   
     2     1    29 1   
     3     1    30 1   
     4     1    31 1   
     5     2    20 1   
     6     2    32 1   
     7     2    33 1   
     8     2    34 1   
     9     3     4 ar  
    10     3     7 ar  
    11     3    21 1   
    12     4     5 ar  
    13     4    35 1   
    14     5    23 ar  
    15     5    36 1   
    16     6     7 ar  
    17     6     8 1   
    18     6    23 ar  
    19     7    37 1   
    20     8     9 ar  
    21     8    24 ar  
    22     9    10 ar  
    23     9    38 1   
    24    10    11 ar  
    25    10    39 1   
    26    11    12 ar  
    27    11    40 1   
    28    12    13 1   
    29    12    24 ar  
    30    13    16 1   
    31    13    25 1   
    32    14    15 1   
    33    14    16 2   
    34    14    26 1   
    35    15    27 1   
    36    15    28 1   
    37    16    17 1   
    38    17    18 1   
    39    17    19 1   
    40    17    41 1   
    41    18    19 1   
    42    18    42 1   
    43    18    43 1   
    44    19    44 1   
    45    19    45 1   
    46    20    21 1   
    47    21    22 2   
    48    23    46 1   
    49    24    47 1   
    50    25    26 2   
    51    26    48 1   
@<TRIPOS>SUBSTRUCTURE
     1 5QZ         1 TEMP              0 ****  ****    0 ROOT
