@<TRIPOS>MOLECULE
5R0
   26    26     1     0     0
SMALL
No Charge or Current Charge


@<TRIPOS>ATOM
      1 C10          0.4390     1.1870     0.0030 ca         1 5R0      -0.139500
      2 C1          -3.2200    -0.0040     0.0340 c          1 5R0       0.711600
      3 C01          3.2250     0.7690     1.2510 c3         1 5R0      -0.076100
      4 C02          2.7210     0.0150    -0.0090 c3         1 5R0       0.009300
      5 C03          3.2070     0.7590    -1.2830 c3         1 5R0      -0.076100
      6 C04          3.3660    -1.4010    -0.0080 c3         1 5R0      -0.076100
      7 C05          1.1680    -0.0240     0.0020 ca         1 5R0      -0.106300
      8 C06          0.4300    -1.2320     0.0120 ca         1 5R0      -0.139500
      9 C07         -0.9760    -1.2250     0.0230 ca         1 5R0      -0.090500
     10 C08         -1.6980    -0.0110     0.0230 ca         1 5R0      -0.130600
     11 C09         -0.9660     1.1960     0.0130 ca         1 5R0      -0.090500
     12 O12         -3.8110    -1.0750     0.0430 o          1 5R0      -0.723000
     13 H1           0.9590     2.1410    -0.0050 ha         1 5R0       0.083000
     14 H3           2.8800     1.8100     1.2650 hc         1 5R0       0.026256
     15 H4           2.8630     0.2810     2.1640 hc         1 5R0       0.026256
     16 H5           4.3210     0.7850     1.2870 hc         1 5R0       0.026256
     17 H6           4.3020     0.7740    -1.3350 hc         1 5R0       0.026256
     18 H7           2.8310     0.2630    -2.1870 hc         1 5R0       0.026256
     19 H8           2.8620     1.7990    -1.3000 hc         1 5R0       0.026256
     20 H9           3.0790    -1.9660     0.8870 hc         1 5R0       0.026256
     21 H10          3.0660    -1.9730    -0.8950 hc         1 5R0       0.026256
     22 H11          4.4610    -1.3320    -0.0170 hc         1 5R0       0.026256
     23 H12          0.9240    -2.1990     0.0130 ha         1 5R0       0.083000
     24 H13         -1.5050    -2.1750     0.0300 ha         1 5R0       0.124500
     25 H14         -1.4850     2.1520     0.0130 ha         1 5R0       0.124500
     26 O2          -3.8020     1.0720     0.0330 o          1 5R0      -0.723000
@<TRIPOS>BOND
     1     1     7 ar  
     2     1    11 ar  
     3     1    13 1   
     4     2    10 1   
     5     2    12 1   
     6     2    26 1   
     7     3     4 1   
     8     3    14 1   
     9     3    15 1   
    10     3    16 1   
    11     4     5 1   
    12     4     6 1   
    13     4     7 1   
    14     5    17 1   
    15     5    18 1   
    16     5    19 1   
    17     6    20 1   
    18     6    21 1   
    19     6    22 1   
    20     7     8 ar  
    21     8     9 ar  
    22     8    23 1   
    23     9    10 ar  
    24     9    24 1   
    25    10    11 ar  
    26    11    25 1   
@<TRIPOS>SUBSTRUCTURE
     1 5R0         1 TEMP              0 ****  ****    0 ROOT
