@<TRIPOS>MOLECULE
5R0
   26    26     1     0     0
SMALL
abcg2


@<TRIPOS>ATOM
      1 C10          0.4500     1.1710    -0.0030 ca         1 5R0      -0.139500
      2 C1          -3.1810    -0.0080     0.0380 c          1 5R0       0.711600
      3 C01          3.1950     0.7590     1.2390 c3         1 5R0      -0.076100
      4 C02          2.7000     0.0150    -0.0090 c3         1 5R0       0.009300
      5 C03          3.1810     0.7500    -1.2680 c3         1 5R0      -0.076100
      6 C04          3.3170    -1.3840    -0.0080 c3         1 5R0      -0.076100
      7 C05          1.1760    -0.0230    -0.0010 ca         1 5R0      -0.106300
      8 C06          0.4470    -1.2100     0.0110 ca         1 5R0      -0.139500
      9 C07         -0.9430    -1.2030     0.0210 ca         1 5R0      -0.090500
     10 C08         -1.6590    -0.0130     0.0210 ca         1 5R0      -0.130600
     11 C09         -0.9340     1.1780     0.0080 ca         1 5R0      -0.090500
     12 O12         -3.7450    -1.1200     0.0510 o          1 5R0      -0.723000
     13 H1           0.9760     2.1200    -0.0120 ha         1 5R0       0.083000
     14 H3           2.8460     1.7920     1.2660 hc         1 5R0       0.026256
     15 H4           2.8520     0.2670     2.1510 hc         1 5R0       0.026256
     16 H5           4.2870     0.7810     1.2610 hc         1 5R0       0.026256
     17 H6           4.2720     0.7620    -1.3090 hc         1 5R0       0.026256
     18 H7           2.8180     0.2600    -2.1720 hc         1 5R0       0.026256
     19 H8           2.8420     1.7870    -1.2930 hc         1 5R0       0.026256
     20 H9           3.0340    -1.9550     0.8770 hc         1 5R0       0.026256
     21 H10          3.0270    -1.9600    -0.8880 hc         1 5R0       0.026256
     22 H11          4.4050    -1.3030    -0.0130 hc         1 5R0       0.026256
     23 H12          0.9560    -2.1640     0.0120 ha         1 5R0       0.083000
     24 H13         -1.4790    -2.1440     0.0310 ha         1 5R0       0.124500
     25 H14         -1.4640     2.1220     0.0070 ha         1 5R0       0.124500
     26 O2          -3.7370     1.1080     0.0380 o          1 5R0      -0.723000
@<TRIPOS>BOND
     1     1     7 ar  
     2     1    11 ar  
     3     1    13 1   
     4     2    10 1   
     5     2    12 1   
     6     2    26 1   
     7     3     4 1   
     8     3    14 1   
     9     3    15 1   
    10     3    16 1   
    11     4     5 1   
    12     4     6 1   
    13     4     7 1   
    14     5    17 1   
    15     5    18 1   
    16     5    19 1   
    17     6    20 1   
    18     6    21 1   
    19     6    22 1   
    20     7     8 ar  
    21     8     9 ar  
    22     8    23 1   
    23     9    10 ar  
    24     9    24 1   
    25    10    11 ar  
    26    11    25 1   
@<TRIPOS>SUBSTRUCTURE
     1 5R0         1 TEMP              0 ****  ****    0 ROOT
