@<TRIPOS>MOLECULE
5R1
   50    52     1     0     0
SMALL
bcc


@<TRIPOS>ATOM
      1 C01         -2.8360    -2.8480     1.4320 c3         1 5R1       0.127700
      2 O02         -3.9210    -2.2330     0.7710 os         1 5R1      -0.270900
      3 C03         -3.7630    -0.9870     0.2860 ca         1 5R1       0.143100
      4 C04         -2.5910    -0.2570     0.4540 ca         1 5R1      -0.209000
      5 C05         -2.4610     1.0260    -0.0790 cp         1 5R1      -0.162500
      6 C06         -1.1790     1.7360     0.1080 cp         1 5R1       0.354500
      7 N07         -0.0820     1.0220    -0.0080 nb         1 5R1      -0.628000
      8 C08          1.1210     1.5760     0.1490 cp         1 5R1       0.286500
      9 C09          2.2990     0.6970     0.0100 cp         1 5R1      -0.040500
     10 C10          3.5910     1.2190    -0.0190 ca         1 5R1      -0.229000
     11 C11          4.6840     0.3650    -0.1400 ca         1 5R1       0.150100
     12 O12          5.9640     0.7730    -0.1770 os         1 5R1      -0.308900
     13 C13          6.2360     2.1580    -0.1070 c3         1 5R1       0.123200
     14 C14          4.4910    -1.0150    -0.2460 ca         1 5R1       0.017100
     15 O15          5.5550    -1.8440    -0.4030 os         1 5R1      -0.306900
     16 C16          6.1150    -2.3170     0.8160 c3         1 5R1       0.126700
     17 C17          3.1940    -1.5320    -0.2140 ca         1 5R1       0.150100
     18 O18          3.0990    -2.8700    -0.3100 os         1 5R1      -0.308900
     19 C19          1.8100    -3.4520    -0.3370 c3         1 5R1       0.123200
     20 C20          2.1030    -0.6780    -0.0940 ca         1 5R1      -0.229000
     21 C21          1.1880     2.9310     0.4480 ca         1 5R1       0.338900
     22 N22          0.1060     3.6770     0.6000 nb         1 5R1      -0.744000
     23 C23         -1.0870     3.1160     0.4450 ca         1 5R1       0.561900
     24 N24         -2.1730     3.9090     0.6120 nv         1 5R1      -0.934500
     25 C25         -3.5100     1.5620    -0.8170 ca         1 5R1      -0.174000
     26 C26         -4.6630     0.8120    -1.0100 ca         1 5R1      -0.097000
     27 C27         -4.8310    -0.4480    -0.4530 ca         1 5R1      -0.123600
     28 C28         -6.1550    -1.1730    -0.6560 c          1 5R1       0.931200
     29 O29         -6.6630    -1.7070     0.3450 o          1 5R1      -0.813300
     30 O30         -6.6250    -1.1270    -1.8080 o          1 5R1      -0.813300
     31 H011        -1.9560    -2.9340     0.7880 h1         1 5R1       0.023700
     32 H012        -2.5490    -2.3150     2.3430 h1         1 5R1       0.023700
     33 H013        -3.1670    -3.8470     1.7040 h1         1 5R1       0.023700
     34 H04         -1.7560    -0.6660     1.0060 ha         1 5R1       0.123000
     35 H25         -3.4240     2.5370    -1.2800 ha         1 5R1       0.118000
     36 H21          2.1340     3.4410     0.5940 h4         1 5R1       0.013100
     37 H10          3.7450     2.2860     0.0420 ha         1 5R1       0.152000
     38 H20          1.0930    -1.0600    -0.0750 ha         1 5R1       0.152000
     39 H131         5.8810     2.6000     0.8280 h1         1 5R1       0.040867
     40 H132         7.3170     2.2610    -0.1520 h1         1 5R1       0.040867
     41 H133         5.7970     2.7050    -0.9450 h1         1 5R1       0.040867
     42 H161         5.3820    -2.8620     1.4150 h1         1 5R1       0.029033
     43 H162         6.9260    -2.9940     0.5550 h1         1 5R1       0.029033
     44 H163         6.5210    -1.5000     1.4170 h1         1 5R1       0.029033
     45 H191         1.2480    -3.2470     0.5780 h1         1 5R1       0.040867
     46 H192         1.2270    -3.1080    -1.1950 h1         1 5R1       0.040867
     47 H193         1.9590    -4.5250    -0.4220 h1         1 5R1       0.040867
     48 H241        -3.0590     3.4800     0.8240 hn         1 5R1       0.425800
     49 H242        -2.0100     4.7860     1.0800 hn         1 5R1       0.425800
     50 H26         -5.4620     1.2250    -1.6110 ha         1 5R1       0.145000
@<TRIPOS>BOND
     1     1     2 1   
     2     1    31 1   
     3     1    32 1   
     4     1    33 1   
     5     2     3 1   
     6     3     4 ar  
     7     3    27 ar  
     8     4     5 ar  
     9     4    34 1   
    10     5     6 1   
    11     5    25 ar  
    12     6     7 ar  
    13     6    23 ar  
    14     7     8 ar  
    15     8     9 1   
    16     8    21 ar  
    17     9    10 ar  
    18     9    20 ar  
    19    10    11 ar  
    20    10    37 1   
    21    11    12 1   
    22    11    14 ar  
    23    12    13 1   
    24    13    39 1   
    25    13    40 1   
    26    13    41 1   
    27    14    15 1   
    28    14    17 ar  
    29    15    16 1   
    30    16    42 1   
    31    16    43 1   
    32    16    44 1   
    33    17    18 1   
    34    17    20 ar  
    35    18    19 1   
    36    19    45 1   
    37    19    46 1   
    38    19    47 1   
    39    20    38 1   
    40    21    22 ar  
    41    21    36 1   
    42    22    23 ar  
    43    23    24 1   
    44    24    48 1   
    45    24    49 1   
    46    25    26 ar  
    47    25    35 1   
    48    26    27 ar  
    49    26    50 1   
    50    27    28 1   
    51    28    29 1   
    52    28    30 1   
@<TRIPOS>SUBSTRUCTURE
     1 5R1         1 TEMP              0 ****  ****    0 ROOT
