@<TRIPOS>MOLECULE
5R1
   50    52     1     0     0
SMALL
No Charge or Current Charge


@<TRIPOS>ATOM
      1 C01         -3.0750    -3.0560     1.2130 c3         1 5R1       0.150900
      2 O02         -4.0910    -2.3220     0.5100 os         1 5R1      -0.294100
      3 C03         -3.9120    -1.0160     0.0900 ca         1 5R1       0.143100
      4 C04         -2.7030    -0.3190     0.3230 ca         1 5R1      -0.191000
      5 C05         -2.5110     1.0140    -0.1300 cp         1 5R1      -0.162500
      6 C06         -1.2110     1.7420     0.1210 cp         1 5R1       0.354500
      7 N07         -0.0820     0.9800     0.0600 nb         1 5R1      -0.628000
      8 C08          1.1050     1.6130     0.2860 cp         1 5R1       0.286500
      9 C09          2.3580     0.7690     0.2110 cp         1 5R1      -0.040500
     10 C10          3.6280     1.3490    -0.0220 ca         1 5R1      -0.211000
     11 C11          4.7990     0.5640    -0.0920 ca         1 5R1       0.150100
     12 O12          6.0410     1.1380    -0.3210 os         1 5R1      -0.332100
     13 C13          6.2280     2.5540    -0.4950 c3         1 5R1       0.146400
     14 C14          4.7340    -0.8400     0.0690 ca         1 5R1       0.017100
     15 O15          5.9460    -1.5290    -0.0150 os         1 5R1      -0.330100
     16 C16          6.1010    -2.9530     0.1190 c3         1 5R1       0.149900
     17 C17          3.4650    -1.4520     0.3000 ca         1 5R1       0.150100
     18 O18          3.3610    -2.8250     0.4600 os         1 5R1      -0.332100
     19 C19          2.1120    -3.5040     0.6850 c3         1 5R1       0.146400
     20 C20          2.3080    -0.6410     0.3650 ca         1 5R1      -0.211000
     21 C21          1.1380     3.0170     0.6020 ca         1 5R1       0.338900
     22 N22          0.0270     3.8000     0.6910 nb         1 5R1      -0.744000
     23 C23         -1.1220     3.1600     0.4470 ca         1 5R1       0.561900
     24 N24         -2.1360     4.0420     0.6220 nv         1 5R1      -1.044900
     25 C25         -3.5730     1.6190    -0.8470 ca         1 5R1      -0.156000
     26 C26         -4.7760     0.9350    -1.0820 ca         1 5R1      -0.079000
     27 C27         -4.9580    -0.3790    -0.6090 ca         1 5R1      -0.123600
     28 C28         -6.2580    -1.0890    -0.8710 c          1 5R1       0.720600
     29 O29         -6.9340    -1.4430     0.0850 o          1 5R1      -0.708000
     30 O30         -6.6290    -1.1890    -2.0330 o          1 5R1      -0.708000
     31 H011        -2.1670    -3.1460     0.6020 h1         1 5R1       0.023700
     32 H012        -2.8190    -2.5590     2.1570 h1         1 5R1       0.023700
     33 H013        -3.4300    -4.0670     1.4460 h1         1 5R1       0.023700
     34 H04         -1.8930    -0.7990     0.8630 ha         1 5R1       0.105000
     35 H25         -3.4600     2.6230    -1.2480 ha         1 5R1       0.100000
     36 H21          2.0800     3.5210     0.8110 h4         1 5R1       0.013100
     37 H10          3.6920     2.4220    -0.1660 ha         1 5R1       0.134000
     38 H20          1.3400    -1.0950     0.5470 ha         1 5R1       0.134000
     39 H131         5.8980     3.1040     0.3950 h1         1 5R1       0.040867
     40 H132         7.2890     2.7790    -0.6590 h1         1 5R1       0.040867
     41 H133         5.6670     2.9180    -1.3650 h1         1 5R1       0.040867
     42 H161         5.5370    -3.4850    -0.6580 h1         1 5R1       0.029033
     43 H162         7.1580    -3.2280     0.0110 h1         1 5R1       0.029033
     44 H163         5.7670    -3.2930     1.1070 h1         1 5R1       0.029033
     45 H191         1.6390    -3.1560     1.6120 h1         1 5R1       0.040867
     46 H192         1.4200    -3.3370    -0.1500 h1         1 5R1       0.040867
     47 H193         2.2790    -4.5840     0.7760 h1         1 5R1       0.040867
     48 H241        -3.0580     3.6650     0.8200 hn         1 5R1       0.481000
     49 H242        -1.8860     4.9070     1.0860 hn         1 5R1       0.481000
     50 H26         -5.5740     1.4250    -1.6370 ha         1 5R1       0.127000
@<TRIPOS>BOND
     1     1     2 1   
     2     1    31 1   
     3     1    32 1   
     4     1    33 1   
     5     2     3 1   
     6     3     4 ar  
     7     3    27 ar  
     8     4     5 ar  
     9     4    34 1   
    10     5     6 1   
    11     5    25 ar  
    12     6     7 ar  
    13     6    23 ar  
    14     7     8 ar  
    15     8     9 1   
    16     8    21 ar  
    17     9    10 ar  
    18     9    20 ar  
    19    10    11 ar  
    20    10    37 1   
    21    11    12 1   
    22    11    14 ar  
    23    12    13 1   
    24    13    39 1   
    25    13    40 1   
    26    13    41 1   
    27    14    15 1   
    28    14    17 ar  
    29    15    16 1   
    30    16    42 1   
    31    16    43 1   
    32    16    44 1   
    33    17    18 1   
    34    17    20 ar  
    35    18    19 1   
    36    19    45 1   
    37    19    46 1   
    38    19    47 1   
    39    20    38 1   
    40    21    22 ar  
    41    21    36 1   
    42    22    23 ar  
    43    23    24 1   
    44    24    48 1   
    45    24    49 1   
    46    25    26 ar  
    47    25    35 1   
    48    26    27 ar  
    49    26    50 1   
    50    27    28 1   
    51    28    29 1   
    52    28    30 1   
@<TRIPOS>SUBSTRUCTURE
     1 5R1         1 TEMP              0 ****  ****    0 ROOT
