@<TRIPOS>MOLECULE
5R3
  121   125     1     0     0
SMALL
No Charge or Current Charge


@<TRIPOS>ATOM
      1 O71         -9.4130    -1.3280    -1.2150 o          1 5R3      -0.617100
      2 C71         -8.5570    -0.4910    -1.4980 c          1 5R3       0.540600
      3 C51         -8.1020     0.1000    -5.1340 cc         1 5R3      -0.215000
      4 N11         -8.7290    -0.5480    -4.0920 na         1 5R3      -0.124500
      5 C61         -9.7860    -1.5630    -4.2330 c3         1 5R3       0.064900
      6 C21         -8.1850    -0.0730    -2.9020 cc         1 5R3       0.334000
      7 N31         -7.2490     0.8420    -3.1850 nd         1 5R3      -0.673000
      8 C41         -7.1980     0.9480    -4.5570 cd         1 5R3       0.234900
      9 N81         -7.8150     0.1820    -0.5360 ns         1 5R3      -0.355100
     10 C42         -7.8560     0.0820     0.8490 cc         1 5R3      -0.023400
     11 C32         -7.0430     0.8240     1.7190 cc         1 5R3      -0.172000
     12 C52         -8.6670    -0.7290     1.5930 cd         1 5R3      -0.176000
     13 C22         -7.3360     0.4830     3.0200 cd         1 5R3      -0.233600
     14 N12         -8.3510    -0.4870     2.9360 na         1 5R3       0.064000
     15 C62         -8.9970    -1.1590     4.0740 c3         1 5R3       0.062900
     16 C72         -6.6950     1.0390     4.2460 c          1 5R3       0.637700
     17 O72         -6.9860     0.7030     5.3840 o          1 5R3      -0.611100
     18 N82         -5.7290     1.9830     3.9830 ns         1 5R3      -0.504900
     19 CM1         -4.9210     2.6620     4.9980 c3         1 5R3       0.114000
     20 CM2         -3.7660     1.7730     5.4950 c3         1 5R3      -0.180400
     21 C92         -2.9070     2.5260     6.5090 c          1 5R3       0.603100
     22 O92         -3.2910     2.7360     7.6500 o          1 5R3      -0.588100
     23 N92         -1.6720     2.9090     6.0430 ns         1 5R3      -0.463400
     24 C43         -0.6740     3.5690     6.7030 cc         1 5R3       0.362900
     25 N33          0.4620     3.8430     6.0260 nc         1 5R3      -0.715000
     26 C53         -0.6510     4.0090     7.9920 cd         1 5R3      -0.212000
     27 C23          1.2550     4.4830     6.8990 cd         1 5R3       0.348000
     28 N13          0.5930     4.6010     8.1290 na         1 5R3      -0.114500
     29 C63          1.1110     5.2350     9.3520 c3         1 5R3       0.064900
     30 C73          2.6450     4.9820     6.5590 c          1 5R3       0.541600
     31 O73          3.3930     5.5700     7.3380 o          1 5R3      -0.614100
     32 N83          2.9870     4.6990     5.2440 ns         1 5R3      -0.355100
     33 C44          4.1550     4.9830     4.5480 cc         1 5R3      -0.023400
     34 C34          4.3760     4.6460     3.2050 cc         1 5R3      -0.174000
     35 C54          5.2650     5.6210     5.0280 cd         1 5R3      -0.176000
     36 C24          5.6300     5.0710     2.8280 cd         1 5R3      -0.232600
     37 N14          6.1810     5.6790     3.9700 na         1 5R3       0.066000
     38 C64          7.5150     6.2910     4.0620 c3         1 5R3       0.061900
     39 C74          6.2510     4.9080     1.4820 c          1 5R3       0.638700
     40 O74          7.3710     5.3020     1.1920 o          1 5R3      -0.610100
     41 N84          5.4390     4.2690     0.5740 ns         1 5R3      -0.506900
     42 CM3          5.8060     3.9640    -0.8110 c3         1 5R3       0.111000
     43 CM4          6.7020     2.7160    -0.9040 c3         1 5R3      -0.180400
     44 C94          7.0430     2.4070    -2.3600 c          1 5R3       0.604100
     45 O94          7.8390     3.0840    -2.9930 o          1 5R3      -0.585100
     46 N94          6.4100     1.3020    -2.8780 ns         1 5R3      -0.465400
     47 C45          6.5110     0.7650    -4.1320 cc         1 5R3       0.361900
     48 N35          5.7840    -0.3370    -4.4140 nc         1 5R3      -0.715000
     49 C55          7.2650     1.1960    -5.1820 cd         1 5R3      -0.213000
     50 C25          6.0700    -0.6390    -5.6900 cd         1 5R3       0.345000
     51 N15          6.9860     0.2930    -6.1940 na         1 5R3      -0.115500
     52 C65          7.5580     0.3230    -7.5500 c3         1 5R3       0.064900
     53 C75          5.4700    -1.8190    -6.4340 c          1 5R3       0.537600
     54 O75          5.7090    -2.1190    -7.6010 o          1 5R3      -0.620100
     55 N85          4.5930    -2.5590    -5.6620 ns         1 5R3      -0.486900
     56 CM5          3.8850    -3.7630    -6.1030 c3         1 5R3       0.113000
     57 CM6          4.7970    -5.0040    -6.0790 c3         1 5R3      -0.185400
     58 C16          4.0290    -6.2380    -6.5460 c          1 5R3       0.598100
     59 O16          3.1930    -6.7920    -5.8470 o          1 5R3      -0.615100
     60 N16          4.3740    -6.7020    -7.7950 ns         1 5R3      -0.501900
     61 CM7          3.7610    -7.8570    -8.4570 c3         1 5R3       0.102000
     62 CM8          2.3830    -7.5200    -9.0590 c3         1 5R3      -0.103400
     63 CM9          1.7400    -8.7290    -9.7730 c3         1 5R3       0.167800
     64 N17          0.4850    -8.4250   -10.5050 n3         1 5R3      -0.716600
     65 C27         -0.6160    -7.9380    -9.6380 c3         1 5R3       0.148100
     66 C37          0.0510    -9.5550   -11.3570 c3         1 5R3       0.148100
     67 H51         -8.3340    -0.0790    -6.1770 h4         1 5R3       0.160000
     68 H613        -9.4540    -2.5080    -3.7850 h1         1 5R3       0.064033
     69 H612       -10.0070    -1.7290    -5.2940 h1         1 5R3       0.064033
     70 H611       -10.6980    -1.2210    -3.7270 h1         1 5R3       0.064033
     71 H41         -6.5150     1.6280    -5.0520 h4         1 5R3       0.044100
     72 HN1         -7.1550     0.8360    -0.9470 hn         1 5R3       0.352500
     73 H32         -6.3050     1.5460     1.3820 ha         1 5R3       0.132000
     74 H52         -9.4240    -1.4440     1.2940 h4         1 5R3       0.176000
     75 H621        -8.2430    -1.7040     4.6540 h1         1 5R3       0.062033
     76 H622        -9.7520    -1.8660     3.7100 h1         1 5R3       0.062033
     77 H623        -9.4820    -0.4120     4.7140 h1         1 5R3       0.062033
     78 HN2         -5.5670     2.1980     3.0080 hn         1 5R3       0.319500
     79 HM12        -5.5650     2.9450     5.8430 h1         1 5R3       0.069700
     80 HM11        -4.5150     3.5850     4.5620 h1         1 5R3       0.069700
     81 HM21        -3.1620     1.4710     4.6320 hc         1 5R3       0.070700
     82 HM22        -4.1900     0.8880     5.9820 hc         1 5R3       0.070700
     83 HN3         -1.4830     2.6640     5.0820 hn         1 5R3       0.332500
     84 H53         -1.3870     3.9490     8.7840 h4         1 5R3       0.190000
     85 H631         1.3340     6.2910     9.1560 h1         1 5R3       0.066033
     86 H632         2.0260     4.7240     9.6750 h1         1 5R3       0.066033
     87 H633         0.3630     5.1690    10.1520 h1         1 5R3       0.066033
     88 HN4          2.2440     4.2110     4.7510 hn         1 5R3       0.349500
     89 H34          3.6470     4.1280     2.5880 ha         1 5R3       0.130000
     90 H54          5.4800     6.0320     6.0060 h4         1 5R3       0.177000
     91 H641         8.2800     5.5360     3.8440 h1         1 5R3       0.063033
     92 H642         7.5930     7.1100     3.3380 h1         1 5R3       0.063033
     93 H643         7.6760     6.6860     5.0720 h1         1 5R3       0.063033
     94 HN5          4.5270     3.9890     0.9080 hn         1 5R3       0.319500
     95 HM32         6.3260     4.8300    -1.2450 h1         1 5R3       0.067200
     96 HM31         4.8860     3.8010    -1.3890 h1         1 5R3       0.067200
     97 HM41         7.6330     2.9120    -0.3610 hc         1 5R3       0.073700
     98 HM42         6.1740     1.8710    -0.4460 hc         1 5R3       0.073700
     99 HN6          5.7870     0.8270    -2.2410 hn         1 5R3       0.331500
    100 H55          7.9440     2.0330    -5.2830 h4         1 5R3       0.189000
    101 H651         6.7530     0.4310    -8.2880 h1         1 5R3       0.065700
    102 H652         8.2480     1.1700    -7.6460 h1         1 5R3       0.065700
    103 H653         8.1050    -0.6080    -7.7420 h1         1 5R3       0.065700
    104 HN7          4.4610    -2.2260    -4.7110 hn         1 5R3       0.342500
    105 HM52         3.5030    -3.6030    -7.1210 h1         1 5R3       0.073200
    106 HM51         3.0220    -3.9260    -5.4430 h1         1 5R3       0.073200
    107 HM61         5.6570    -4.8240    -6.7330 hc         1 5R3       0.065200
    108 HM62         5.1350    -5.1660    -5.0490 hc         1 5R3       0.065200
    109 HN8          5.0890    -6.1830    -8.2920 hn         1 5R3       0.314500
    110 HM71         3.6580    -8.6740    -7.7310 h1         1 5R3       0.056200
    111 HM72         4.4350    -8.1990    -9.2550 h1         1 5R3       0.056200
    112 HM81         2.4950    -6.6970    -9.7760 hc         1 5R3       0.055700
    113 HM82         1.7230    -7.1690    -8.2580 hc         1 5R3       0.055700
    114 HM91         2.4800    -9.1230   -10.4830 h1         1 5R3       0.029700
    115 HM92         1.5580    -9.5200    -9.0310 h1         1 5R3       0.029700
    116 H271        -0.3420    -7.0010    -9.1350 h1         1 5R3       0.031867
    117 H272        -0.8690    -8.6820    -8.8710 h1         1 5R3       0.031867
    118 H273        -1.5180    -7.7390   -10.2320 h1         1 5R3       0.031867
    119 H371        -0.2070   -10.4310   -10.7460 h1         1 5R3       0.031867
    120 H372         0.8490    -9.8460   -12.0540 h1         1 5R3       0.031867
    121 H373        -0.8300    -9.2790   -11.9520 h1         1 5R3       0.031867
@<TRIPOS>BOND
     1     1     2 2   
     2     2     6 1   
     3     2     9 1   
     4     3     4 1   
     5     3     8 2   
     6     3    67 1   
     7     4     5 1   
     8     4     6 1   
     9     5    68 1   
    10     5    69 1   
    11     5    70 1   
    12     6     7 2   
    13     7     8 1   
    14     8    71 1   
    15     9    10 1   
    16     9    72 1   
    17    10    11 1   
    18    10    12 2   
    19    11    13 2   
    20    11    73 1   
    21    12    14 1   
    22    12    74 1   
    23    13    14 1   
    24    13    16 1   
    25    14    15 1   
    26    15    75 1   
    27    15    76 1   
    28    15    77 1   
    29    16    17 2   
    30    16    18 1   
    31    18    19 1   
    32    18    78 1   
    33    19    20 1   
    34    19    79 1   
    35    19    80 1   
    36    20    21 1   
    37    20    81 1   
    38    20    82 1   
    39    21    22 2   
    40    21    23 1   
    41    23    24 1   
    42    23    83 1   
    43    24    25 1   
    44    24    26 2   
    45    25    27 2   
    46    26    28 1   
    47    26    84 1   
    48    27    28 1   
    49    27    30 1   
    50    28    29 1   
    51    29    85 1   
    52    29    86 1   
    53    29    87 1   
    54    30    31 2   
    55    30    32 1   
    56    32    33 1   
    57    32    88 1   
    58    33    34 1   
    59    33    35 2   
    60    34    36 2   
    61    34    89 1   
    62    35    37 1   
    63    35    90 1   
    64    36    37 1   
    65    36    39 1   
    66    37    38 1   
    67    38    91 1   
    68    38    92 1   
    69    38    93 1   
    70    39    40 2   
    71    39    41 1   
    72    41    42 1   
    73    41    94 1   
    74    42    43 1   
    75    42    95 1   
    76    42    96 1   
    77    43    44 1   
    78    43    97 1   
    79    43    98 1   
    80    44    45 2   
    81    44    46 1   
    82    46    47 1   
    83    46    99 1   
    84    47    48 1   
    85    47    49 2   
    86    48    50 2   
    87    49    51 1   
    88    49   100 1   
    89    50    51 1   
    90    50    53 1   
    91    51    52 1   
    92    52   101 1   
    93    52   102 1   
    94    52   103 1   
    95    53    54 2   
    96    53    55 1   
    97    55    56 1   
    98    55   104 1   
    99    56    57 1   
   100    56   105 1   
   101    56   106 1   
   102    57    58 1   
   103    57   107 1   
   104    57   108 1   
   105    58    59 2   
   106    58    60 1   
   107    60    61 1   
   108    60   109 1   
   109    61    62 1   
   110    61   110 1   
   111    61   111 1   
   112    62    63 1   
   113    62   112 1   
   114    62   113 1   
   115    63    64 1   
   116    63   114 1   
   117    63   115 1   
   118    64    65 1   
   119    64    66 1   
   120    65   116 1   
   121    65   117 1   
   122    65   118 1   
   123    66   119 1   
   124    66   120 1   
   125    66   121 1   
@<TRIPOS>SUBSTRUCTURE
     1 5R3         1 TEMP              0 ****  ****    0 ROOT
