@<TRIPOS>MOLECULE
5R3
  121   125     1     0     0
SMALL
abcg2


@<TRIPOS>ATOM
      1 O71        -12.4940    -1.5040     3.7480 o          1 5R3      -0.617100
      2 C71        -11.8880    -1.1770     2.7260 c          1 5R3       0.540600
      3 C51        -13.4740    -2.4890    -0.2570 cc         1 5R3      -0.215000
      4 N11        -13.4200    -2.3400     1.1020 na         1 5R3      -0.124500
      5 C61        -14.3880    -2.9100     2.0360 c3         1 5R3       0.064900
      6 C21        -12.3200    -1.5780     1.3720 cc         1 5R3       0.334000
      7 N31        -11.6840    -1.2430     0.2540 nd         1 5R3      -0.673000
      8 C41        -12.3950    -1.8060    -0.7650 cd         1 5R3       0.234900
      9 N81        -10.7680    -0.4180     2.7190 ns         1 5R3      -0.355100
     10 C42        -10.1300     0.1260     3.8350 cc         1 5R3      -0.023400
     11 C32         -9.0090     0.9800     3.7650 cc         1 5R3      -0.172000
     12 C52        -10.4460    -0.0340     5.1770 cd         1 5R3      -0.176000
     13 C22         -8.6690     1.3250     5.0670 cd         1 5R3      -0.233600
     14 N12         -9.5590     0.6990     5.9120 na         1 5R3       0.064000
     15 C62         -9.5880     0.7410     7.3690 c3         1 5R3       0.062900
     16 C72         -7.6150     2.2300     5.5450 c          1 5R3       0.637700
     17 O72         -7.6160     2.7130     6.6830 o          1 5R3      -0.611100
     18 N82         -6.6530     2.5310     4.6390 ns         1 5R3      -0.504900
     19 CM1         -5.5880     3.4680     4.9290 c3         1 5R3       0.114000
     20 CM2         -4.3840     2.8080     5.6200 c3         1 5R3      -0.180400
     21 C92         -3.4120     3.8590     6.1070 c          1 5R3       0.603100
     22 O92         -3.7330     4.6970     6.9470 o          1 5R3      -0.588100
     23 N92         -2.1740     3.8290     5.5480 ns         1 5R3      -0.463400
     24 C43         -1.1360     4.7110     5.8360 cc         1 5R3       0.362900
     25 N33          0.0450     4.5910     5.1770 nc         1 5R3      -0.715000
     26 C53         -1.0790     5.7590     6.7330 cd         1 5R3      -0.212000
     27 C23          0.8300     5.5530     5.6600 cd         1 5R3       0.348000
     28 N13          0.1820     6.2830     6.6060 na         1 5R3      -0.114500
     29 C63          0.6680     7.4250     7.3770 c3         1 5R3       0.064900
     30 C73          2.2190     5.7900     5.2240 c          1 5R3       0.541600
     31 O73          2.9340     6.6610     5.7220 o          1 5R3      -0.614100
     32 N83          2.6170     4.9590     4.2330 ns         1 5R3      -0.355100
     33 C44          3.8760     4.9380     3.6300 cc         1 5R3      -0.023400
     34 C34          4.2240     4.0940     2.5540 cc         1 5R3      -0.174000
     35 C54          5.0000     5.6880     3.9480 cd         1 5R3      -0.176000
     36 C24          5.5550     4.3460     2.2440 cd         1 5R3      -0.232600
     37 N14          6.0100     5.3160     3.1090 na         1 5R3       0.066000
     38 C64          7.3330     5.9280     3.1470 c3         1 5R3       0.061900
     39 C74          6.4120     3.7230     1.2260 c          1 5R3       0.638700
     40 O74          7.6460     3.7580     1.2840 o          1 5R3      -0.610100
     41 N84          5.7580     3.1030     0.2130 ns         1 5R3      -0.506900
     42 CM3          6.4510     2.3680    -0.8230 c3         1 5R3       0.111000
     43 CM4          6.6370     0.8800    -0.4700 c3         1 5R3      -0.180400
     44 C94          7.5340     0.2140    -1.4890 c          1 5R3       0.604100
     45 O94          8.7590     0.2340    -1.3940 o          1 5R3      -0.585100
     46 N94          6.8970    -0.3560    -2.5460 ns         1 5R3      -0.465400
     47 C45          7.5170    -0.9360    -3.6490 cc         1 5R3       0.361900
     48 N35          6.7560    -1.4140    -4.6660 nc         1 5R3      -0.715000
     49 C55          8.8570    -1.1280    -3.9230 cd         1 5R3      -0.213000
     50 C25          7.6110    -1.8970    -5.5660 cd         1 5R3       0.345000
     51 N15          8.8950    -1.7420    -5.1490 na         1 5R3      -0.115500
     52 C65         10.1310    -2.1250    -5.8260 c3         1 5R3       0.064900
     53 C75          7.2090    -2.5200    -6.8450 c          1 5R3       0.537600
     54 O75          8.0300    -3.0120    -7.6230 o          1 5R3      -0.620100
     55 N85          5.8810    -2.4870    -7.0730 ns         1 5R3      -0.486900
     56 CM5          5.2590    -3.1220    -8.2170 c3         1 5R3       0.113000
     57 CM6          4.8230    -4.5600    -7.9120 c3         1 5R3      -0.185400
     58 C16          4.1440    -5.1910    -9.1110 c          1 5R3       0.598100
     59 O16          3.2080    -4.6270    -9.6860 o          1 5R3      -0.615100
     60 N16          4.6210    -6.3890    -9.4920 ns         1 5R3      -0.501900
     61 CM7          4.1330    -7.1200   -10.6510 c3         1 5R3       0.102000
     62 CM8          4.9120    -6.7870   -11.9230 c3         1 5R3      -0.103400
     63 CM9          4.3880    -7.5740   -13.1180 c3         1 5R3       0.167800
     64 N17          5.2000    -7.4160   -14.3240 n3         1 5R3      -0.716600
     65 C27          5.1220    -6.0670   -14.8700 c3         1 5R3       0.148100
     66 C37          4.8150    -8.3950   -15.3330 c3         1 5R3       0.148100
     67 H51        -14.2590    -3.0540    -0.7290 h4         1 5R3       0.160000
     68 H613       -13.8870    -3.5760     2.7340 h1         1 5R3       0.064033
     69 H612       -15.1200    -3.4660     1.4560 h1         1 5R3       0.064033
     70 H611       -14.8830    -2.1190     2.5930 h1         1 5R3       0.064033
     71 H41        -12.1040    -1.6950    -1.7980 h4         1 5R3       0.044100
     72 HN1        -10.3730    -0.2170     1.8100 hn         1 5R3       0.352500
     73 H32         -8.5300     1.3230     2.8620 ha         1 5R3       0.132000
     74 H52        -11.2190    -0.6090     5.6490 h4         1 5R3       0.176000
     75 H621        -8.6090     0.4950     7.7750 h1         1 5R3       0.062033
     76 H622       -10.3150     0.0070     7.7070 h1         1 5R3       0.062033
     77 H623        -9.8740     1.7300     7.7220 h1         1 5R3       0.062033
     78 HN2         -6.6240     2.0270     3.7680 hn         1 5R3       0.319500
     79 HM12        -5.9850     4.2490     5.5740 h1         1 5R3       0.069700
     80 HM11        -5.2740     3.9250     3.9900 h1         1 5R3       0.069700
     81 HM21        -3.9050     2.0980     4.9450 hc         1 5R3       0.070700
     82 HM22        -4.7390     2.2630     6.4970 hc         1 5R3       0.070700
     83 HN3         -1.9670     3.1200     4.8610 hn         1 5R3       0.332500
     84 H53         -1.8000     6.1600     7.4180 h4         1 5R3       0.190000
     85 H631         0.9760     8.2250     6.7090 h1         1 5R3       0.066033
     86 H632         1.5140     7.1310     7.9930 h1         1 5R3       0.066033
     87 H633        -0.1470     7.7660     8.0100 h1         1 5R3       0.066033
     88 HN4          1.9310     4.2930     3.9030 hn         1 5R3       0.349500
     89 H34          3.5800     3.3690     2.0830 ha         1 5R3       0.130000
     90 H54          5.1440     6.4490     4.6910 h4         1 5R3       0.177000
     91 H641         8.0800     5.2100     3.4770 h1         1 5R3       0.063033
     92 H642         7.6110     6.2940     2.1610 h1         1 5R3       0.063033
     93 H643         7.2920     6.7620     3.8440 h1         1 5R3       0.063033
     94 HN5          4.7510     3.1280     0.1890 hn         1 5R3       0.319500
     95 HM32         7.4260     2.8300    -0.9710 h1         1 5R3       0.067200
     96 HM31         5.8830     2.4630    -1.7480 h1         1 5R3       0.067200
     97 HM41         7.1240     0.8000     0.5010 hc         1 5R3       0.073700
     98 HM42         5.6630     0.3900    -0.4170 hc         1 5R3       0.073700
     99 HN6          5.8880    -0.3410    -2.5740 hn         1 5R3       0.331500
    100 H55          9.7460    -0.8890    -3.3730 h4         1 5R3       0.189000
    101 H651        10.1950    -1.6360    -6.7950 h1         1 5R3       0.065700
    102 H652        10.9620    -1.8120    -5.2000 h1         1 5R3       0.065700
    103 H653        10.1630    -3.2020    -5.9700 h1         1 5R3       0.065700
    104 HN7          5.2980    -2.1030    -6.3450 hn         1 5R3       0.342500
    105 HM52         5.9750    -3.1160    -9.0380 h1         1 5R3       0.073200
    106 HM51         4.3950    -2.5290    -8.5140 h1         1 5R3       0.073200
    107 HM61         5.6860    -5.1450    -7.5920 hc         1 5R3       0.065200
    108 HM62         4.1030    -4.5490    -7.0900 hc         1 5R3       0.065200
    109 HN8          5.4220    -6.7590    -9.0060 hn         1 5R3       0.314500
    110 HM71         3.0780    -6.8770   -10.7790 h1         1 5R3       0.056200
    111 HM72         4.2080    -8.1860   -10.4300 h1         1 5R3       0.056200
    112 HM81         5.9690    -7.0250   -11.7730 hc         1 5R3       0.055700
    113 HM82         4.8430    -5.7120   -12.1000 hc         1 5R3       0.055700
    114 HM91         4.3860    -8.6370   -12.8640 h1         1 5R3       0.029700
    115 HM92         3.3370    -7.2920   -13.3130 h1         1 5R3       0.029700
    116 H271         5.4890    -5.3380   -14.1500 h1         1 5R3       0.031867
    117 H272         4.0890    -5.7890   -15.1450 h1         1 5R3       0.031867
    118 H273         5.7410    -6.0010   -15.7660 h1         1 5R3       0.031867
    119 H371         3.7710    -8.2680   -15.6660 h1         1 5R3       0.031867
    120 H372         4.9250    -9.4040   -14.9320 h1         1 5R3       0.031867
    121 H373         5.4620    -8.2960   -16.2070 h1         1 5R3       0.031867
@<TRIPOS>BOND
     1     1     2 2   
     2     2     6 1   
     3     2     9 1   
     4     3     4 1   
     5     3     8 2   
     6     3    67 1   
     7     4     5 1   
     8     4     6 1   
     9     5    68 1   
    10     5    69 1   
    11     5    70 1   
    12     6     7 2   
    13     7     8 1   
    14     8    71 1   
    15     9    10 1   
    16     9    72 1   
    17    10    11 1   
    18    10    12 2   
    19    11    13 2   
    20    11    73 1   
    21    12    14 1   
    22    12    74 1   
    23    13    14 1   
    24    13    16 1   
    25    14    15 1   
    26    15    75 1   
    27    15    76 1   
    28    15    77 1   
    29    16    17 2   
    30    16    18 1   
    31    18    19 1   
    32    18    78 1   
    33    19    20 1   
    34    19    79 1   
    35    19    80 1   
    36    20    21 1   
    37    20    81 1   
    38    20    82 1   
    39    21    22 2   
    40    21    23 1   
    41    23    24 1   
    42    23    83 1   
    43    24    25 1   
    44    24    26 2   
    45    25    27 2   
    46    26    28 1   
    47    26    84 1   
    48    27    28 1   
    49    27    30 1   
    50    28    29 1   
    51    29    85 1   
    52    29    86 1   
    53    29    87 1   
    54    30    31 2   
    55    30    32 1   
    56    32    33 1   
    57    32    88 1   
    58    33    34 1   
    59    33    35 2   
    60    34    36 2   
    61    34    89 1   
    62    35    37 1   
    63    35    90 1   
    64    36    37 1   
    65    36    39 1   
    66    37    38 1   
    67    38    91 1   
    68    38    92 1   
    69    38    93 1   
    70    39    40 2   
    71    39    41 1   
    72    41    42 1   
    73    41    94 1   
    74    42    43 1   
    75    42    95 1   
    76    42    96 1   
    77    43    44 1   
    78    43    97 1   
    79    43    98 1   
    80    44    45 2   
    81    44    46 1   
    82    46    47 1   
    83    46    99 1   
    84    47    48 1   
    85    47    49 2   
    86    48    50 2   
    87    49    51 1   
    88    49   100 1   
    89    50    51 1   
    90    50    53 1   
    91    51    52 1   
    92    52   101 1   
    93    52   102 1   
    94    52   103 1   
    95    53    54 2   
    96    53    55 1   
    97    55    56 1   
    98    55   104 1   
    99    56    57 1   
   100    56   105 1   
   101    56   106 1   
   102    57    58 1   
   103    57   107 1   
   104    57   108 1   
   105    58    59 2   
   106    58    60 1   
   107    60    61 1   
   108    60   109 1   
   109    61    62 1   
   110    61   110 1   
   111    61   111 1   
   112    62    63 1   
   113    62   112 1   
   114    62   113 1   
   115    63    64 1   
   116    63   114 1   
   117    63   115 1   
   118    64    65 1   
   119    64    66 1   
   120    65   116 1   
   121    65   117 1   
   122    65   118 1   
   123    66   119 1   
   124    66   120 1   
   125    66   121 1   
@<TRIPOS>SUBSTRUCTURE
     1 5R3         1 TEMP              0 ****  ****    0 ROOT
