@<TRIPOS>MOLECULE
5R4
   58    61     1     0     0
SMALL
bcc


@<TRIPOS>ATOM
      1 N15         19.9680     2.9430     5.6860 n          1 5R4      -0.495800
      2 C23         18.2940     8.5400     5.8620 ca         1 5R4      -0.083000
      3 C24         17.3910     9.5860     5.9550 ca         1 5R4      -0.139000
      4 C30         16.5470     7.1230     4.9980 ca         1 5R4      -0.057000
      5 C31         21.3780     1.1390     3.5510 c5         1 5R4       0.116100
      6 C33         21.5030    -0.0180     2.5130 c5         1 5R4       0.147100
      7 C26         15.6440     8.1780     5.0740 ca         1 5R4      -0.156600
      8 C25         16.0720     9.4110     5.5620 ca         1 5R4      -0.097000
      9 C14         19.2780     2.0130     4.8000 c3         1 5R4       0.113000
     10 C22         17.8760     7.2960     5.3810 ca         1 5R4       0.019000
     11 C21         18.7960     6.2110     5.2870 cg         1 5R4      -0.096000
     12 C19         20.5040     4.1700     5.1190 c3         1 5R4       0.189100
     13 C12         19.3330    -0.1770     3.5230 c5         1 5R4      -0.086400
     14 C02         19.7550    -5.1880     0.6200 ca         1 5R4       0.587300
     15 C04         20.7830    -5.3060     2.6340 ca         1 5R4       0.673900
     16 C06         20.2060    -3.2890     1.9150 ca         1 5R4       0.464800
     17 C07         19.6630    -3.8100     0.7200 ca         1 5R4      -0.319400
     18 C08         19.1620    -2.7120    -0.0300 cc         1 5R4      -0.145200
     19 C09         19.4140    -1.6050     0.7220 cd         1 5R4      -0.114100
     20 C11         20.4500    -1.0340     2.9460 c5         1 5R4       0.048000
     21 C13         20.1170     0.8140     4.3810 c5         1 5R4      -0.129700
     22 C16         19.9430     2.8430     7.0430 c          1 5R4       0.671100
     23 C20         19.5700     5.2900     5.2150 c1         1 5R4      -0.145100
     24 N03         20.3020    -5.9280     1.5500 nb         1 5R4      -0.723000
     25 N05         20.7650    -4.0110     2.8760 nb         1 5R4      -0.704000
     26 N10         20.0430    -1.9450     1.8990 na         1 5R4      -0.141100
     27 N28         13.5110     8.9860     4.2830 nt         1 5R4      -0.669000
     28 O18         20.4300     3.7130     7.7470 o          1 5R4      -0.582100
     29 O29         13.7730     6.7810     4.6680 o          1 5R4      -0.602100
     30 O32         22.5560     1.2230     4.3090 oh         1 5R4      -0.577800
     31 O34         22.7510    -0.6400     2.4400 oh         1 5R4      -0.561800
     32 H2          17.7150    10.5430     6.3410 ha         1 5R4       0.138000
     33 H3          16.2200     6.1600     4.6310 ha         1 5R4       0.158000
     34 H4          21.2120     2.0690     2.9900 h1         1 5R4       0.029700
     35 H5          21.2090     0.3900     1.5350 h1         1 5R4       0.032700
     36 H6          15.3820    10.2390     5.6660 ha         1 5R4       0.131000
     37 H7          18.9650     2.5670     3.9120 h1         1 5R4       0.055200
     38 H8          18.3560     1.6680     5.2710 h1         1 5R4       0.055200
     39 H12         20.7450     3.9960     4.0700 h1         1 5R4       0.069700
     40 H13         21.4410     4.4330     5.6120 h1         1 5R4       0.069700
     41 H14         18.7880     0.3410     2.7280 hc         1 5R4       0.060200
     42 H15         18.6110    -0.7580     4.0970 hc         1 5R4       0.060200
     43 H16         21.2300    -5.9420     3.3870 h5         1 5R4       0.056100
     44 H17         18.6810    -2.7340    -0.9940 ha         1 5R4       0.169000
     45 H18         19.1870    -0.5730     0.5030 h4         1 5R4       0.166000
     46 H19         20.8710    -1.6500     3.7440 h1         1 5R4       0.118700
     47 H20         20.4550     0.2770     5.2740 hc         1 5R4       0.077700
     48 H21         12.5630     8.8600     3.9680 hn         1 5R4       0.314000
     49 H22         13.9250     9.8880     4.1210 hn         1 5R4       0.314000
     50 H23         22.4780     1.9720     4.9080 ho         1 5R4       0.415000
     51 H24         23.4000    -0.0020     2.1260 ho         1 5R4       0.418000
     52 CL1         19.1240    -5.9840    -0.7760 cl         1 5R4      -0.157000
     53 C17         19.2720     1.6300     7.6380 c3         1 5R4      -0.178100
     54 H1          19.3230     8.6800     6.1660 ha         1 5R4       0.144000
     55 C27         14.2290     7.9150     4.6560 c          1 5R4       0.684700
     56 H9          19.4820     1.5950     8.7030 hc         1 5R4       0.064033
     57 H10         18.1890     1.6910     7.5080 hc         1 5R4       0.064033
     58 H11         19.6010     0.6940     7.1880 hc         1 5R4       0.064033
@<TRIPOS>BOND
     1     1     9 1   
     2     1    12 1   
     3     1    22 1   
     4     2     3 ar  
     5     2    10 ar  
     6     2    54 1   
     7     3     8 ar  
     8     3    32 1   
     9     4     7 ar  
    10     4    10 ar  
    11     4    33 1   
    12     5     6 1   
    13     5    21 1   
    14     5    30 1   
    15     5    34 1   
    16     6    20 1   
    17     6    31 1   
    18     6    35 1   
    19     7     8 ar  
    20     7    55 1   
    21     8    36 1   
    22     9    21 1   
    23     9    37 1   
    24     9    38 1   
    25    10    11 1   
    26    11    23 3   
    27    12    23 1   
    28    12    39 1   
    29    12    40 1   
    30    13    20 1   
    31    13    21 1   
    32    13    41 1   
    33    13    42 1   
    34    14    17 ar  
    35    14    24 ar  
    36    14    52 1   
    37    15    24 ar  
    38    15    25 ar  
    39    15    43 1   
    40    16    17 ar  
    41    16    25 ar  
    42    16    26 1   
    43    17    18 1   
    44    18    19 2   
    45    18    44 1   
    46    19    26 1   
    47    19    45 1   
    48    20    26 1   
    49    20    46 1   
    50    21    47 1   
    51    22    28 2   
    52    22    53 1   
    53    27    48 1   
    54    27    49 1   
    55    27    55 1   
    56    29    55 2   
    57    30    50 1   
    58    31    51 1   
    59    53    56 1   
    60    53    57 1   
    61    53    58 1   
@<TRIPOS>SUBSTRUCTURE
     1 5R4         1 TEMP              0 ****  ****    0 ROOT
