@<TRIPOS>MOLECULE
5R4
   58    61     1     0     0
SMALL
No Charge or Current Charge


@<TRIPOS>ATOM
      1 N15         19.9630     2.9090     5.9440 n          1 5R4      -0.428800
      2 C23         18.4870     8.6010     4.9450 ca         1 5R4      -0.065000
      3 C24         17.5660     9.6540     4.8240 ca         1 5R4      -0.121000
      4 C30         16.6450     7.0300     5.1950 ca         1 5R4      -0.039000
      5 C31         21.3930     1.2400     3.5910 c5         1 5R4       0.139300
      6 C33         21.4680     0.1710     2.4370 c5         1 5R4       0.170300
      7 C26         15.7060     8.0800     5.0740 ca         1 5R4      -0.156600
      8 C25         16.1850     9.4000     4.8880 ca         1 5R4      -0.079000
      9 C14         19.2740     2.1010     4.9040 c3         1 5R4       0.113000
     10 C22         18.0270     7.2870     5.1300 ca         1 5R4       0.019000
     11 C21         18.9650     6.2090     5.2540 cg         1 5R4      -0.096000
     12 C19         20.6560     4.1390     5.4870 c3         1 5R4       0.189100
     13 C12         19.3060    -0.0050     3.3820 c5         1 5R4      -0.086400
     14 C02         19.7910    -5.1630     0.4370 ca         1 5R4       0.259000
     15 C04         20.8230    -5.3790     2.4760 ca         1 5R4       0.147900
     16 C06         20.2350    -3.2530     1.8320 ca         1 5R4       0.136500
     17 C07         19.7290    -3.7810     0.6700 ca         1 5R4      -0.188800
     18 C08         19.2020    -2.7150    -0.1230 cc         1 5R4      -0.195200
     19 C09         19.4100    -1.5520     0.5990 cd         1 5R4      -0.164100
     20 C11         20.4490    -0.9210     2.8750 c5         1 5R4       0.077300
     21 C13         20.0870     0.8890     4.3810 c5         1 5R4      -0.129700
     22 C16         19.7590     2.6950     7.3310 c          1 5R4       0.604100
     23 C20         19.7490     5.2870     5.3600 c1         1 5R4      -0.145100
     24 N03         20.3480    -5.9780     1.3570 nb         1 5R4      -0.197000
     25 N05         20.7950    -4.0540     2.7640 nb         1 5R4      -0.178000
     26 N10         20.0540    -1.8700     1.8250 na         1 5R4      -0.170400
     27 N28         13.3490     8.7850     5.0320 nt         1 5R4      -0.602000
     28 O18         20.2300     3.4620     8.1600 o          1 5R4      -0.582100
     29 O29         13.8020     6.6340     5.3090 o          1 5R4      -0.602100
     30 O32         22.5340     1.1600     4.4560 oh         1 5R4      -0.640000
     31 O34         22.8020    -0.3160     2.2950 oh         1 5R4      -0.624000
     32 H2          17.9240    10.6710     4.6800 ha         1 5R4       0.120000
     33 H3          16.3030     6.0070     5.3390 ha         1 5R4       0.140000
     34 H4          21.3260     2.2420     3.1450 h1         1 5R4       0.029700
     35 H5          21.1400     0.6290     1.4940 h1         1 5R4       0.032700
     36 H6          15.5020    10.2390     4.7900 ha         1 5R4       0.113000
     37 H7          19.0390     2.7510     4.0490 h1         1 5R4       0.055200
     38 H8          18.3080     1.7460     5.2840 h1         1 5R4       0.055200
     39 H12         21.1220     3.9590     4.5110 h1         1 5R4       0.069700
     40 H13         21.4640     4.3960     6.1840 h1         1 5R4       0.069700
     41 H14         18.8460     0.5780     2.5740 hc         1 5R4       0.060200
     42 H15         18.5070    -0.5750     3.8710 hc         1 5R4       0.060200
     43 H16         21.2730    -6.0300     3.2230 h5         1 5R4       0.056100
     44 H17         18.7290    -2.7830    -1.1020 ha         1 5R4       0.219000
     45 H18         19.1500    -0.5300     0.3350 h4         1 5R4       0.216000
     46 H19         20.8660    -1.4880     3.7180 h1         1 5R4       0.118700
     47 H20         20.3370     0.2870     5.2630 hc         1 5R4       0.077700
     48 H21         12.3600     8.5880     5.0790 hn         1 5R4       0.314000
     49 H22         13.6780     9.7280     4.8990 hn         1 5R4       0.314000
     50 H23         22.3430     1.7290     5.2330 ho         1 5R4       0.454000
     51 H24         23.2480     0.0440     3.1010 ho         1 5R4       0.457000
     52 Cl1         19.1580    -5.8910    -1.0340 cl         1 5R4      -0.157000
     53 C17         18.9720     1.4690     7.8050 c3         1 5R4      -0.178100
     54 H1          19.5540     8.8070     4.8940 ha         1 5R4       0.126000
     55 C27         14.2270     7.7660     5.1490 c          1 5R4       0.617700
     56 H9          18.9990     1.3550     8.8940 hc         1 5R4       0.064033
     57 H10         17.9380     1.5550     7.4560 hc         1 5R4       0.064033
     58 H11         19.3310     0.5690     7.2970 hc         1 5R4       0.064033
@<TRIPOS>BOND
     1     1     9 1   
     2     1    12 1   
     3     1    22 1   
     4     2     3 ar  
     5     2    10 ar  
     6     2    54 1   
     7     3     8 ar  
     8     3    32 1   
     9     4     7 ar  
    10     4    10 ar  
    11     4    33 1   
    12     5     6 1   
    13     5    21 1   
    14     5    30 1   
    15     5    34 1   
    16     6    20 1   
    17     6    31 1   
    18     6    35 1   
    19     7     8 ar  
    20     7    55 1   
    21     8    36 1   
    22     9    21 1   
    23     9    37 1   
    24     9    38 1   
    25    10    11 1   
    26    11    23 3   
    27    12    23 1   
    28    12    39 1   
    29    12    40 1   
    30    13    20 1   
    31    13    21 1   
    32    13    41 1   
    33    13    42 1   
    34    14    17 ar  
    35    14    24 ar  
    36    14    52 1   
    37    15    24 ar  
    38    15    25 ar  
    39    15    43 1   
    40    16    17 ar  
    41    16    25 ar  
    42    16    26 1   
    43    17    18 1   
    44    18    19 2   
    45    18    44 1   
    46    19    26 1   
    47    19    45 1   
    48    20    26 1   
    49    20    46 1   
    50    21    47 1   
    51    22    28 2   
    52    22    53 1   
    53    27    48 1   
    54    27    49 1   
    55    27    55 1   
    56    29    55 2   
    57    30    50 1   
    58    31    51 1   
    59    53    56 1   
    60    53    57 1   
    61    53    58 1   
@<TRIPOS>SUBSTRUCTURE
     1 5R4         1 TEMP              0 ****  ****    0 ROOT
