@<TRIPOS>MOLECULE
5R5
   17    16     1     0     0
SMALL
bcc


@<TRIPOS>ATOM
      1 N          -24.0720    20.3040    -4.9720 n8         1 5R5      -0.878800
      2 CA         -23.0760    19.4580    -4.3350 c3         1 5R5       0.079500
      3 C          -22.4160    20.1420    -3.1440 c          1 5R5       0.591100
      4 CB         -22.0370    19.0010    -5.3530 c3         1 5R5       0.149400
      5 OG         -21.3790    20.0610    -6.0030 oh         1 5R5      -0.591800
      6 O          -21.2850    20.5680    -3.1270 o          1 5R5      -0.545000
      7 C1         -22.7960    20.9590    -0.9650 c3         1 5R5       0.126700
      8 OXT        -23.2510    20.2580    -2.1230 os         1 5R5      -0.420900
      9 H          -24.7930    20.5730    -4.3150 hn         1 5R5       0.359800
     10 H2         -23.6440    21.1570    -5.3090 hn         1 5R5       0.359800
     11 HA         -23.5830    18.5600    -3.9670 h1         1 5R5       0.088700
     12 HB2        -22.5580    18.4300    -6.1240 h1         1 5R5       0.055700
     13 HB3        -21.3330    18.3140    -4.8690 h1         1 5R5       0.055700
     14 HG         -20.8340    20.5070    -5.3460 ho         1 5R5       0.417000
     15 H11        -23.6230    20.9430    -0.2620 h1         1 5R5       0.051033
     16 H12        -21.9310    20.4700    -0.5180 h1         1 5R5       0.051033
     17 H13        -22.5420    21.9920    -1.2010 h1         1 5R5       0.051033
@<TRIPOS>BOND
     1     1     2 1   
     2     1     9 1   
     3     1    10 1   
     4     2     3 1   
     5     2     4 1   
     6     2    11 1   
     7     3     6 2   
     8     3     8 1   
     9     4     5 1   
    10     4    12 1   
    11     4    13 1   
    12     5    14 1   
    13     7     8 1   
    14     7    15 1   
    15     7    16 1   
    16     7    17 1   
@<TRIPOS>SUBSTRUCTURE
     1 5R5         1 TEMP              0 ****  ****    0 ROOT
