@<TRIPOS>MOLECULE
5R6
   91    97     1     0     0
SMALL
abcg2


@<TRIPOS>ATOM
      1 CAR         -3.7770    30.7840    -3.8320 c6         1 5R6      -0.169400
      2 CBN         -2.7170    30.7430    -4.9270 c6         1 5R6       0.174300
      3 OAL         -3.2790    30.3740    -6.1950 oh         1 5R6      -0.661000
      4 CBR         -1.6140    29.7240    -4.5980 c6         1 5R6       0.139300
      5 OAM         -0.4140    30.4520    -4.3270 oh         1 5R6      -0.727000
      6 CBM         -2.0030    28.8490    -3.3990 c6         1 5R6       0.142300
      7 CAB         -1.1480    27.6090    -3.2540 c3         1 5R6      -0.089100
      8 OAW         -3.3570    28.4000    -3.5670 os         1 5R6      -0.461000
      9 CBP         -4.3590    29.3930    -3.5920 c6         1 5R6       0.401300
     10 OAX         -5.2160    29.3220    -2.4550 os         1 5R6      -0.483000
     11 CBQ         -4.6430    29.1390    -1.1470 c6         1 5R6       0.237600
     12 CAT         -4.1800    30.4790    -0.5580 c6         1 5R6      -0.095400
     13 CBW         -4.3160    30.5820     0.9530 c6         1 5R6       0.199000
     14 CAE         -3.8370    31.9450     1.4460 c3         1 5R6      -0.121100
     15 OAO         -3.5030    29.5400     1.5040 oh         1 5R6      -0.658000
     16 CBF         -5.7060    28.4410    -0.3260 ca         1 5R6      -0.098300
     17 CBB         -6.1010    27.1420    -0.7050 ca         1 5R6       0.250100
     18 OAK         -5.4630    26.5600    -1.7240 oh         1 5R6      -0.522100
     19 CBK         -7.1310    26.4670    -0.0090 ca         1 5R6      -0.269600
     20 CBH         -7.5460    25.1350    -0.3990 c          1 5R6       0.632300
     21 OAI         -6.9840    24.5560    -1.3710 o          1 5R6      -0.631100
     22 CBJ         -8.6090    24.4630     0.3350 ca         1 5R6      -0.217600
     23 CBA         -8.9980    23.1720    -0.0600 ca         1 5R6       0.186100
     24 OAJ         -8.4480    22.5200    -1.0950 oh         1 5R6      -0.549100
     25 CAP        -10.0000    22.5020     0.6490 ca         1 5R6      -0.104000
     26 CBD        -10.6260    23.0810     1.7240 ca         1 5R6      -0.127300
     27 CBX        -11.6970    22.3450     2.5050 c6         1 5R6       0.186300
     28 CAF        -11.3490    20.8820     2.7330 c3         1 5R6      -0.084100
     29 OAY        -11.7590    22.9310     3.8200 os         1 5R6      -0.434000
     30 CBS        -13.0720    22.4970     1.7950 c6         1 5R6       0.159300
     31 OAN        -14.0960    21.8180     2.5070 oh         1 5R6      -0.687000
     32 CBT        -13.4470    23.9810     1.6830 c6         1 5R6       0.190500
     33 NBV        -14.7790    24.1830     1.1020 n3         1 5R6      -0.698600
     34 CAD        -15.0780    25.6020     0.9240 c3         1 5R6       0.146600
     35 CAC        -14.9340    23.4860    -0.1720 c3         1 5R6       0.146600
     36 CAS        -13.3290    24.6320     3.0640 c6         1 5R6      -0.122400
     37 CBO        -12.0200    24.2960     3.7610 c6         1 5R6       0.387300
     38 OAV        -10.9150    24.9950     3.1390 os         1 5R6      -0.345100
     39 CBE        -10.2750    24.3980     2.1170 ca         1 5R6       0.172100
     40 CBL         -9.2590    25.0900     1.4410 ca         1 5R6      -0.129600
     41 CBG         -8.8530    26.4520     1.8450 c          1 5R6       0.587300
     42 OAH         -9.3770    27.0620     2.7700 o          1 5R6      -0.492100
     43 CBI         -7.7490    27.1020     1.0820 ca         1 5R6      -0.067600
     44 CAQ         -7.3200    28.3520     1.4780 ca         1 5R6      -0.118000
     45 CBC         -6.2960    29.0160     0.7950 ca         1 5R6       0.013700
     46 CBU         -5.8200    30.3690     1.2820 c6         1 5R6      -0.113400
     47 CAZ         -6.1330    30.6030     2.7480 c          1 5R6       0.592100
     48 OAG         -6.9310    31.4120     3.1580 o          1 5R6      -0.467000
     49 OAU         -5.4090    29.8110     3.5510 os         1 5R6      -0.462100
     50 CAA         -5.6110    29.9580     4.9740 c3         1 5R6       0.151900
     51 H1          -3.3210    31.1790    -2.9260 hc         1 5R6       0.062700
     52 H2          -4.5860    31.4620    -4.1070 hc         1 5R6       0.062700
     53 H3          -2.2440    31.7250    -5.0080 h1         1 5R6       0.061700
     54 H4          -3.9600    31.0210    -6.4200 ho         1 5R6       0.445000
     55 H5          -1.4800    29.0840    -5.4750 h1         1 5R6       0.070700
     56 H6           0.3280    29.8350    -4.3060 ho         1 5R6       0.510000
     57 H7          -1.9160    29.4580    -2.4940 h1         1 5R6       0.044700
     58 H8          -1.4560    27.0370    -2.3780 hc         1 5R6       0.048700
     59 H9          -1.2410    26.9770    -4.1390 hc         1 5R6       0.048700
     60 H10         -0.0980    27.8810    -3.1280 hc         1 5R6       0.048700
     61 H11         -5.0270    29.1320    -4.4140 h2         1 5R6       0.098700
     62 H12         -3.7960    28.4580    -1.2370 h1         1 5R6       0.079700
     63 H13         -3.1360    30.6570    -0.8180 hc         1 5R6       0.059700
     64 H14         -4.7740    31.2760    -1.0050 hc         1 5R6       0.059700
     65 H15         -3.8760    32.0020     2.5350 hc         1 5R6       0.049367
     66 H16         -2.8040    32.1000     1.1340 hc         1 5R6       0.049367
     67 H17         -4.4520    32.7470     1.0350 hc         1 5R6       0.049367
     68 H18         -3.6940    29.4780     2.4510 ho         1 5R6       0.461000
     69 H19         -5.8630    25.6610    -1.8400 ho         1 5R6       0.517000
     70 H20         -7.7550    23.1210    -1.4720 ho         1 5R6       0.521000
     71 H21        -10.2610    21.5040     0.3250 ha         1 5R6       0.136000
     72 H22        -10.3410    20.7950     3.1380 hc         1 5R6       0.055367
     73 H23        -12.0500    20.4520     3.4460 hc         1 5R6       0.055367
     74 H24        -11.4070    20.3160     1.8040 hc         1 5R6       0.055367
     75 H25        -12.9530    22.0680     0.7980 h1         1 5R6       0.041700
     76 H26        -14.0170    20.8710     2.3420 ho         1 5R6       0.499000
     77 H27        -12.6970    24.4370     1.0160 h1         1 5R6       0.032700
     78 H29        -15.1240    26.1160     1.8820 h1         1 5R6       0.033533
     79 H30        -14.3320    26.1130     0.2920 h1         1 5R6       0.033533
     80 H31        -16.0530    25.7000     0.4450 h1         1 5R6       0.033533
     81 H32        -14.8860    22.4070    -0.0320 h1         1 5R6       0.033533
     82 H33        -15.9130    23.7260    -0.5870 h1         1 5R6       0.033533
     83 H34        -14.1680    23.7780    -0.9100 h1         1 5R6       0.033533
     84 H35        -13.3990    25.7160     3.0040 hc         1 5R6       0.080700
     85 H36        -14.1410    24.2780     3.7030 hc         1 5R6       0.080700
     86 H37        -12.0210    24.6650     4.7840 h2         1 5R6       0.116700
     87 H38         -7.7970    28.8080     2.3330 ha         1 5R6       0.144000
     88 H39         -6.3720    31.1460     0.7490 hc         1 5R6       0.103700
     89 H40         -4.9350    29.2440     5.4360 h1         1 5R6       0.054367
     90 H41         -5.3680    30.9740     5.2810 h1         1 5R6       0.054367
     91 H42         -6.6440    29.7290     5.2250 h1         1 5R6       0.054367
@<TRIPOS>BOND
     1     1     2 1   
     2     1     9 1   
     3     1    51 1   
     4     1    52 1   
     5     2     3 1   
     6     2     4 1   
     7     2    53 1   
     8     3    54 1   
     9     4     5 1   
    10     4     6 1   
    11     4    55 1   
    12     5    56 1   
    13     6     7 1   
    14     6     8 1   
    15     6    57 1   
    16     7    58 1   
    17     7    59 1   
    18     7    60 1   
    19     8     9 1   
    20     9    10 1   
    21     9    61 1   
    22    10    11 1   
    23    11    12 1   
    24    11    16 1   
    25    11    62 1   
    26    12    13 1   
    27    12    63 1   
    28    12    64 1   
    29    13    14 1   
    30    13    15 1   
    31    13    46 1   
    32    14    65 1   
    33    14    66 1   
    34    14    67 1   
    35    15    68 1   
    36    16    17 ar  
    37    16    45 ar  
    38    17    18 1   
    39    17    19 ar  
    40    18    69 1   
    41    19    20 1   
    42    19    43 ar  
    43    20    21 2   
    44    20    22 1   
    45    22    23 ar  
    46    22    40 ar  
    47    23    24 1   
    48    23    25 ar  
    49    24    70 1   
    50    25    26 ar  
    51    25    71 1   
    52    26    27 1   
    53    26    39 ar  
    54    27    28 1   
    55    27    29 1   
    56    27    30 1   
    57    28    72 1   
    58    28    73 1   
    59    28    74 1   
    60    29    37 1   
    61    30    31 1   
    62    30    32 1   
    63    30    75 1   
    64    31    76 1   
    65    32    33 1   
    66    32    36 1   
    67    32    77 1   
    68    33    34 1   
    69    33    35 1   
    70    34    78 1   
    71    34    79 1   
    72    34    80 1   
    73    35    81 1   
    74    35    82 1   
    75    35    83 1   
    76    36    37 1   
    77    36    84 1   
    78    36    85 1   
    79    37    38 1   
    80    37    86 1   
    81    38    39 1   
    82    39    40 ar  
    83    40    41 1   
    84    41    42 2   
    85    41    43 1   
    86    43    44 ar  
    87    44    45 ar  
    88    44    87 1   
    89    45    46 1   
    90    46    47 1   
    91    46    88 1   
    92    47    48 2   
    93    47    49 1   
    94    49    50 1   
    95    50    89 1   
    96    50    90 1   
    97    50    91 1   
@<TRIPOS>SUBSTRUCTURE
     1 5R6         1 TEMP              0 ****  ****    0 ROOT
