@<TRIPOS>MOLECULE
5R6
   91    97     1     0     0
SMALL
No Charge or Current Charge


@<TRIPOS>ATOM
      1 CAR         -3.8060    30.8660    -4.0380 c6         1 5R6      -0.169400
      2 CBN         -2.5660    30.8180    -4.9610 c6         1 5R6       0.174300
      3 OAL         -2.9690    30.3110    -6.2450 oh         1 5R6      -0.661000
      4 CBR         -1.4290    29.9300    -4.3330 c6         1 5R6       0.139300
      5 OAM         -0.4510    30.7470    -3.6510 oh         1 5R6      -0.727000
      6 CBM         -2.0140    28.8710    -3.3330 c6         1 5R6       0.142300
      7 CAB         -1.1190    27.6140    -3.1900 c3         1 5R6      -0.089100
      8 OAW         -3.3150    28.4190    -3.7650 os         1 5R6      -0.461000
      9 CBP         -4.3560    29.4310    -3.7630 c6         1 5R6       0.401300
     10 OAX         -5.2230    29.3150    -2.6010 os         1 5R6      -0.483000
     11 CBQ         -4.6660    29.1780    -1.2620 c6         1 5R6       0.237600
     12 CAT         -4.2280    30.5590    -0.7060 c6         1 5R6      -0.095400
     13 CBW         -4.3040    30.6550     0.8280 c6         1 5R6       0.199000
     14 CAE         -3.8000    32.0510     1.2910 c3         1 5R6      -0.121100
     15 OAO         -3.4310    29.6780     1.3960 oh         1 5R6      -0.658000
     16 CBF         -5.7330    28.4450    -0.4070 ca         1 5R6      -0.098300
     17 CBB         -6.1410    27.1410    -0.7780 ca         1 5R6       0.250100
     18 OAK         -5.5260    26.5210    -1.8260 oh         1 5R6      -0.522100
     19 CBK         -7.1590    26.4550    -0.0680 ca         1 5R6      -0.269600
     20 CBH         -7.6030    25.0750    -0.4780 c          1 5R6       0.632300
     21 OAI         -7.0900    24.5260    -1.4520 o          1 5R6      -0.631100
     22 CBJ         -8.6790    24.3700     0.3160 ca         1 5R6      -0.217600
     23 CBA         -9.0870    23.0620    -0.0480 ca         1 5R6       0.186100
     24 OAJ         -8.5350    22.4190    -1.1150 oh         1 5R6      -0.549100
     25 CAP        -10.0730    22.3900     0.6770 ca         1 5R6      -0.104000
     26 CBD        -10.6780    22.9900     1.7930 ca         1 5R6      -0.127300
     27 CBX        -11.7780    22.2560     2.5880 c6         1 5R6       0.186300
     28 CAF        -11.3930    20.7680     2.8450 c3         1 5R6      -0.084100
     29 OAY        -11.8490    22.8500     3.8960 os         1 5R6      -0.434000
     30 CBS        -13.1790    22.3940     1.8850 c6         1 5R6       0.159300
     31 OAN        -14.2220    21.6990     2.6210 oh         1 5R6      -0.687000
     32 CBT        -13.5240    23.9290     1.7260 c6         1 5R6       0.190500
     33 NBV        -14.8650    24.1960     1.0820 n3         1 5R6      -0.698600
     34 CAD        -15.2010    25.6370     0.9540 c3         1 5R6       0.146600
     35 CAC        -15.0410    23.5020    -0.2190 c3         1 5R6       0.146600
     36 CAS        -13.3910    24.6160     3.1220 c6         1 5R6      -0.122400
     37 CBO        -12.0670    24.2690     3.8580 c6         1 5R6       0.387300
     38 OAV        -10.9290    24.8960     3.2370 os         1 5R6      -0.345100
     39 CBE        -10.3050    24.3040     2.1570 ca         1 5R6       0.172100
     40 CBL         -9.3000    25.0070     1.4320 ca         1 5R6      -0.129600
     41 CBG         -8.8890    26.4200     1.8230 c          1 5R6       0.587300
     42 OAH         -9.4300    27.0350     2.7350 o          1 5R6      -0.492100
     43 CBI         -7.7740    27.0860     1.0370 ca         1 5R6      -0.067600
     44 CAQ         -7.3270    28.3650     1.4300 ca         1 5R6      -0.118000
     45 CBC         -6.2920    29.0400     0.7500 ca         1 5R6       0.013700
     46 CBU         -5.7800    30.4100     1.2590 c6         1 5R6      -0.113400
     47 CAZ         -5.9890    30.5640     2.7810 c          1 5R6       0.592100
     48 OAG         -6.9810    31.1070     3.2500 o          1 5R6      -0.467000
     49 OAU         -5.0740    29.8760     3.5410 os         1 5R6      -0.462100
     50 CAA         -5.2310    29.8910     4.9730 c3         1 5R6       0.151900
     51 H1          -3.5310    31.3830    -3.1170 hc         1 5R6       0.062700
     52 H2          -4.5960    31.4750    -4.4970 hc         1 5R6       0.062700
     53 H3          -2.1780    31.8410    -5.0810 h1         1 5R6       0.061700
     54 H4          -3.4430    31.0400    -6.7020 ho         1 5R6       0.445000
     55 H5          -0.9430    29.3910    -5.1610 h1         1 5R6       0.070700
     56 H6           0.3730    30.2110    -3.5700 ho         1 5R6       0.510000
     57 H7          -2.1060    29.3280    -2.3400 h1         1 5R6       0.044700
     58 H8          -1.5630    26.8970    -2.4890 hc         1 5R6       0.048700
     59 H9          -0.9870    27.1070    -4.1530 hc         1 5R6       0.048700
     60 H10         -0.1260    27.8760    -2.8080 hc         1 5R6       0.048700
     61 H11         -4.9920    29.2020    -4.6340 h2         1 5R6       0.098700
     62 H12         -3.7940    28.5100    -1.2870 h1         1 5R6       0.079700
     63 H13         -3.1980    30.7710    -1.0200 hc         1 5R6       0.059700
     64 H14         -4.8600    31.3440    -1.1430 hc         1 5R6       0.059700
     65 H15         -3.7790    32.1410     2.3840 hc         1 5R6       0.049367
     66 H16         -2.7810    32.2440     0.9330 hc         1 5R6       0.049367
     67 H17         -4.4400    32.8540     0.9060 hc         1 5R6       0.049367
     68 H18         -3.7540    29.5410     2.3190 ho         1 5R6       0.461000
     69 H19         -5.9800    25.6440    -1.9260 ho         1 5R6       0.517000
     70 H20         -7.8670    23.0490    -1.4970 ho         1 5R6       0.521000
     71 H21        -10.3640    21.3930     0.3560 ha         1 5R6       0.136000
     72 H22        -10.3580    20.6870     3.1970 hc         1 5R6       0.055367
     73 H23        -12.0320    20.3130     3.6120 hc         1 5R6       0.055367
     74 H24        -11.4870    20.1590     1.9390 hc         1 5R6       0.055367
     75 H25        -13.0840    21.9550     0.8810 h1         1 5R6       0.041700
     76 H26        -14.0580    20.7360     2.5150 ho         1 5R6       0.499000
     77 H27        -12.7580    24.3700     1.0720 h1         1 5R6       0.032700
     78 H29        -15.3080    26.1130     1.9370 h1         1 5R6       0.033533
     79 H30        -14.4280    26.1720     0.3870 h1         1 5R6       0.033533
     80 H31        -16.1590    25.7680     0.4320 h1         1 5R6       0.033533
     81 H32        -14.9960    22.4120    -0.1030 h1         1 5R6       0.033533
     82 H33        -16.0210    23.7380    -0.6560 h1         1 5R6       0.033533
     83 H34        -14.2660    23.8090    -0.9350 h1         1 5R6       0.033533
     84 H35        -13.4410    25.7070     3.0260 hc         1 5R6       0.080700
     85 H36        -14.2350    24.3200     3.7580 hc         1 5R6       0.080700
     86 H37        -12.1450    24.6480     4.8890 h2         1 5R6       0.116700
     87 H38         -7.8000    28.8350     2.2880 ha         1 5R6       0.144000
     88 H39         -6.4270    31.1680     0.7990 hc         1 5R6       0.103700
     89 H40         -4.4320    29.3120     5.4520 h1         1 5R6       0.054367
     90 H41         -5.1870    30.9170     5.3610 h1         1 5R6       0.054367
     91 H42         -6.1930    29.4490     5.2660 h1         1 5R6       0.054367
@<TRIPOS>BOND
     1     1     2 1   
     2     1     9 1   
     3     1    51 1   
     4     1    52 1   
     5     2     3 1   
     6     2     4 1   
     7     2    53 1   
     8     3    54 1   
     9     4     5 1   
    10     4     6 1   
    11     4    55 1   
    12     5    56 1   
    13     6     7 1   
    14     6     8 1   
    15     6    57 1   
    16     7    58 1   
    17     7    59 1   
    18     7    60 1   
    19     8     9 1   
    20     9    10 1   
    21     9    61 1   
    22    10    11 1   
    23    11    12 1   
    24    11    16 1   
    25    11    62 1   
    26    12    13 1   
    27    12    63 1   
    28    12    64 1   
    29    13    14 1   
    30    13    15 1   
    31    13    46 1   
    32    14    65 1   
    33    14    66 1   
    34    14    67 1   
    35    15    68 1   
    36    16    17 ar  
    37    16    45 ar  
    38    17    18 1   
    39    17    19 ar  
    40    18    69 1   
    41    19    20 1   
    42    19    43 ar  
    43    20    21 2   
    44    20    22 1   
    45    22    23 ar  
    46    22    40 ar  
    47    23    24 1   
    48    23    25 ar  
    49    24    70 1   
    50    25    26 ar  
    51    25    71 1   
    52    26    27 1   
    53    26    39 ar  
    54    27    28 1   
    55    27    29 1   
    56    27    30 1   
    57    28    72 1   
    58    28    73 1   
    59    28    74 1   
    60    29    37 1   
    61    30    31 1   
    62    30    32 1   
    63    30    75 1   
    64    31    76 1   
    65    32    33 1   
    66    32    36 1   
    67    32    77 1   
    68    33    34 1   
    69    33    35 1   
    70    34    78 1   
    71    34    79 1   
    72    34    80 1   
    73    35    81 1   
    74    35    82 1   
    75    35    83 1   
    76    36    37 1   
    77    36    84 1   
    78    36    85 1   
    79    37    38 1   
    80    37    86 1   
    81    38    39 1   
    82    39    40 ar  
    83    40    41 1   
    84    41    42 2   
    85    41    43 1   
    86    43    44 ar  
    87    44    45 ar  
    88    44    87 1   
    89    45    46 1   
    90    46    47 1   
    91    46    88 1   
    92    47    48 2   
    93    47    49 1   
    94    49    50 1   
    95    50    89 1   
    96    50    90 1   
    97    50    91 1   
@<TRIPOS>SUBSTRUCTURE
     1 5R6         1 TEMP              0 ****  ****    0 ROOT
