@<TRIPOS>MOLECULE
5R8
   40    41     1     0     0
SMALL
No Charge or Current Charge


@<TRIPOS>ATOM
      1 C6          -2.5000    -1.4860    -0.1450 c3         1 5R8       0.168800
      2 C1          -4.7720    -2.1710     0.4580 c3         1 5R8       0.153100
      3 N2          -3.8980    -1.0270     0.1090 n3         1 5R8      -0.715600
      4 C7          -1.5080    -0.5000    -0.8290 c3         1 5R8       0.172800
      5 N8          -1.3360     0.8620    -0.2330 n3         1 5R8      -0.733600
      6 C9          -2.5610     1.6840    -0.3850 c3         1 5R8       0.184800
      7 C10         -3.6650     1.4710     0.6710 c3         1 5R8      -0.061400
      8 C11         -3.9540     0.0320     1.1450 c3         1 5R8       0.175800
      9 C22         -0.1480     1.5590    -0.7910 c3         1 5R8       0.223100
     10 C23          1.1780     0.8640    -0.4820 ca         1 5R8      -0.086300
     11 C26          1.9730     0.3440    -1.5220 ca         1 5R8      -0.104000
     12 C27          3.1920    -0.2960    -1.2330 ca         1 5R8      -0.102000
     13 C28          3.6320    -0.4220     0.1000 ca         1 5R8      -0.089300
     14 C29          2.8360     0.0990     1.1390 ca         1 5R8      -0.102000
     15 C30          1.6180     0.7380     0.8500 ca         1 5R8      -0.104000
     16 C35          4.9480    -1.1220     0.4140 c3         1 5R8       0.197100
     17 N36          6.0620    -0.1620     0.5160 n8         1 5R8      -0.997200
     18 H1          -2.0480    -1.8060     0.8030 h1         1 5R8       0.031700
     19 H2          -2.5280    -2.3800    -0.7830 h1         1 5R8       0.031700
     20 H3          -4.4430    -2.6460     1.3930 h1         1 5R8       0.028367
     21 H4          -5.8120    -1.8400     0.5880 h1         1 5R8       0.028367
     22 H5          -4.7590    -2.9280    -0.3370 h1         1 5R8       0.028367
     23 H7          -0.5410    -1.0200    -0.8470 h1         1 5R8       0.036200
     24 H8          -1.8130    -0.3970    -1.8800 h1         1 5R8       0.036200
     25 H10         -2.3060     2.7520    -0.3510 h1         1 5R8       0.030200
     26 H11         -2.9960     1.5110    -1.3800 h1         1 5R8       0.030200
     27 H12         -3.4180     2.0690     1.5560 hc         1 5R8       0.038700
     28 H13         -4.5930     1.8960     0.2700 hc         1 5R8       0.038700
     29 H14         -4.9500     0.0520     1.6080 h1         1 5R8       0.030200
     30 H15         -3.2500    -0.2120     1.9540 h1         1 5R8       0.030200
     31 H16         -0.2550     1.6700    -1.8800 h1         1 5R8       0.036200
     32 H17         -0.0850     2.5750    -0.3760 h1         1 5R8       0.036200
     33 H18          1.6470     0.4320    -2.5560 ha         1 5R8       0.117500
     34 H19          3.7950    -0.6940    -2.0460 ha         1 5R8       0.117000
     35 H20          3.1640     0.0090     2.1720 ha         1 5R8       0.117000
     36 H21          1.0100     1.1330     1.6600 ha         1 5R8       0.117500
     37 H22          4.8620    -1.6680     1.3650 h1         1 5R8       0.033200
     38 H23          5.1790    -1.8500    -0.3760 h1         1 5R8       0.033200
     39 H24          6.9390    -0.6830     0.6320 hn         1 5R8       0.395500
     40 H25          6.1730     0.3060    -0.3910 hn         1 5R8       0.395500
@<TRIPOS>BOND
     1     1     3 1   
     2     1     4 1   
     3     1    18 1   
     4     1    19 1   
     5     2     3 1   
     6     2    20 1   
     7     2    21 1   
     8     2    22 1   
     9     3     8 1   
    10     4     5 1   
    11     4    23 1   
    12     4    24 1   
    13     5     6 1   
    14     5     9 1   
    15     6     7 1   
    16     6    25 1   
    17     6    26 1   
    18     7     8 1   
    19     7    27 1   
    20     7    28 1   
    21     8    29 1   
    22     8    30 1   
    23     9    10 1   
    24     9    31 1   
    25     9    32 1   
    26    10    11 ar  
    27    10    15 ar  
    28    11    12 ar  
    29    11    33 1   
    30    12    13 ar  
    31    12    34 1   
    32    13    14 ar  
    33    13    16 1   
    34    14    15 ar  
    35    14    35 1   
    36    15    36 1   
    37    16    17 1   
    38    16    37 1   
    39    16    38 1   
    40    17    39 1   
    41    17    40 1   
@<TRIPOS>SUBSTRUCTURE
     1 5R8         1 TEMP              0 ****  ****    0 ROOT
