@<TRIPOS>MOLECULE
5R8
   40    41     1     0     0
SMALL
abcg2


@<TRIPOS>ATOM
      1 C6          -2.3790    -1.4460    -0.0880 c3         1 5R8       0.168800
      2 C1          -4.4540    -2.0420     0.9190 c3         1 5R8       0.153100
      3 N2          -3.6710    -0.9570     0.3590 n3         1 5R8      -0.715600
      4 C7          -1.6340    -0.5280    -1.0400 c3         1 5R8       0.172800
      5 N8          -1.3850     0.8080    -0.5300 n3         1 5R8      -0.733600
      6 C9          -2.5880     1.6230    -0.5760 c3         1 5R8       0.184800
      7 C10         -3.4460     1.5180     0.6820 c3         1 5R8      -0.061400
      8 C11         -3.5260     0.1330     1.3140 c3         1 5R8       0.175800
      9 C22         -0.2490     1.4260    -1.1870 c3         1 5R8       0.223100
     10 C23          1.0570     0.7700    -0.8170 ca         1 5R8      -0.086300
     11 C26          2.0510     0.5770    -1.7670 ca         1 5R8      -0.104000
     12 C27          3.2740     0.0130    -1.4170 ca         1 5R8      -0.102000
     13 C28          3.5300    -0.3840    -0.1100 ca         1 5R8      -0.089300
     14 C29          2.5300    -0.1900     0.8430 ca         1 5R8      -0.102000
     15 C30          1.3130     0.3740     0.4950 ca         1 5R8      -0.104000
     16 C35          4.8400    -1.0340     0.2590 c3         1 5R8       0.197100
     17 N36          5.3460    -0.5430     1.5300 n8         1 5R8      -0.997200
     18 H1          -1.7260    -1.6710     0.7730 h1         1 5R8       0.031700
     19 H2          -2.5310    -2.3890    -0.6190 h1         1 5R8       0.031700
     20 H3          -4.0030    -2.4940     1.8160 h1         1 5R8       0.028367
     21 H4          -5.4480    -1.6870     1.1920 h1         1 5R8       0.028367
     22 H5          -4.5780    -2.8350     0.1790 h1         1 5R8       0.028367
     23 H7          -0.6760    -1.0120    -1.2470 h1         1 5R8       0.036200
     24 H8          -2.1750    -0.4840    -1.9990 h1         1 5R8       0.036200
     25 H10         -2.3060     2.6700    -0.7080 h1         1 5R8       0.030200
     26 H11         -3.1960     1.3660    -1.4570 h1         1 5R8       0.030200
     27 H12         -3.0650     2.2020     1.4460 hc         1 5R8       0.038700
     28 H13         -4.4510     1.8660     0.4300 hc         1 5R8       0.038700
     29 H14         -4.3860     0.1260     1.9860 h1         1 5R8       0.030200
     30 H15         -2.6440    -0.0320     1.9530 h1         1 5R8       0.030200
     31 H16         -0.3450     1.4420    -2.2860 h1         1 5R8       0.036200
     32 H17         -0.2100     2.4740    -0.8760 h1         1 5R8       0.036200
     33 H18          1.8740     0.8680    -2.7960 ha         1 5R8       0.117500
     34 H19          4.0340    -0.1210    -2.1780 ha         1 5R8       0.117000
     35 H20          2.7120    -0.4830     1.8690 ha         1 5R8       0.117000
     36 H21          0.5390     0.4960     1.2430 ha         1 5R8       0.117500
     37 H22          4.6810    -2.1120     0.3590 h1         1 5R8       0.033200
     38 H23          5.5400    -0.9110    -0.5780 h1         1 5R8       0.033200
     39 H24          6.1730    -1.0670     1.7850 hn         1 5R8       0.395500
     40 H25          5.6460     0.4180     1.4250 hn         1 5R8       0.395500
@<TRIPOS>BOND
     1     1     3 1   
     2     1     4 1   
     3     1    18 1   
     4     1    19 1   
     5     2     3 1   
     6     2    20 1   
     7     2    21 1   
     8     2    22 1   
     9     3     8 1   
    10     4     5 1   
    11     4    23 1   
    12     4    24 1   
    13     5     6 1   
    14     5     9 1   
    15     6     7 1   
    16     6    25 1   
    17     6    26 1   
    18     7     8 1   
    19     7    27 1   
    20     7    28 1   
    21     8    29 1   
    22     8    30 1   
    23     9    10 1   
    24     9    31 1   
    25     9    32 1   
    26    10    11 ar  
    27    10    15 ar  
    28    11    12 ar  
    29    11    33 1   
    30    12    13 ar  
    31    12    34 1   
    32    13    14 ar  
    33    13    16 1   
    34    14    15 ar  
    35    14    35 1   
    36    15    36 1   
    37    16    17 1   
    38    16    37 1   
    39    16    38 1   
    40    17    39 1   
    41    17    40 1   
@<TRIPOS>SUBSTRUCTURE
     1 5R8         1 TEMP              0 ****  ****    0 ROOT
