@<TRIPOS>MOLECULE
5R9
   40    42     1     0     0
SMALL
No Charge or Current Charge


@<TRIPOS>ATOM
      1 N7           3.5270    -1.5460     0.3820 n3         1 5R9      -0.731600
      2 C5           1.9240     0.0380    -1.0010 c3         1 5R9       0.162800
      3 C6           2.4880    -1.3820    -0.6760 c3         1 5R9       0.185800
      4 C2           4.0190     0.7600     1.2480 c3         1 5R9      -0.072400
      5 C1           4.5250    -0.4590     0.4540 c3         1 5R9       0.186800
      6 C3           2.9820     1.6560     0.5440 c3         1 5R9       0.179800
      7 N4           1.7170     1.0020     0.1230 n3         1 5R9      -0.712600
      8 C18          4.1320    -2.8960     0.3550 c3         1 5R9       0.164100
      9 C22          0.6770     2.0150    -0.1940 c3         1 5R9       0.218100
     10 C23         -0.7170     1.4190    -0.3840 ca         1 5R9      -0.089300
     11 C26         -1.4350     1.6440    -1.5730 ca         1 5R9      -0.103000
     12 C27         -2.7170     1.0900    -1.7420 ca         1 5R9      -0.086000
     13 C28         -3.3080     0.3040    -0.7360 ca         1 5R9       0.266000
     14 C29         -2.5780     0.0820     0.4610 ca         1 5R9      -0.086000
     15 C30         -1.2960     0.6360     0.6320 ca         1 5R9      -0.070000
     16 N34         -4.5440    -0.2170    -0.9270 nb         1 5R9      -0.662000
     17 C35         -5.0890    -0.9700     0.0570 ca         1 5R9       0.350900
     18 C36         -4.4300    -1.2360     1.2680 ca         1 5R9      -0.172000
     19 C37         -3.1500    -0.7020     1.4790 ca         1 5R9      -0.057000
     20 H2           2.5910     0.4980    -1.7430 h1         1 5R9       0.033700
     21 H3           0.9780    -0.1360    -1.5300 h1         1 5R9       0.033700
     22 H4           2.8690    -1.7880    -1.6230 h1         1 5R9       0.029200
     23 H5           1.6300    -2.0110    -0.4020 h1         1 5R9       0.029200
     24 H6           3.6040     0.4160     2.2030 hc         1 5R9       0.049200
     25 H7           4.8840     1.3850     1.4970 hc         1 5R9       0.049200
     26 H8           5.4210    -0.8220     0.9770 h1         1 5R9       0.026200
     27 H9           4.8470    -0.1500    -0.5510 h1         1 5R9       0.026200
     28 H10          2.7510     2.4710     1.2450 h1         1 5R9       0.025200
     29 H11          3.4620     2.1250    -0.3260 h1         1 5R9       0.025200
     30 H13          4.7230    -3.0410    -0.5600 h1         1 5R9       0.026700
     31 H14          4.7940    -3.0440     1.2190 h1         1 5R9       0.026700
     32 H15          3.3550    -3.6710     0.3910 h1         1 5R9       0.026700
     33 H16          0.6090     2.7460     0.6240 h1         1 5R9       0.038200
     34 H17          0.9610     2.5740    -1.0960 h1         1 5R9       0.038200
     35 H18         -1.0020     2.2460    -2.3680 ha         1 5R9       0.111000
     36 H19         -3.2600     1.2710    -2.6650 ha         1 5R9       0.130000
     37 H20         -0.7410     0.4560     1.5510 ha         1 5R9       0.141000
     38 H21         -6.0830    -1.3720    -0.1330 h4         1 5R9       0.017100
     39 H22         -4.9110    -1.8470     2.0260 ha         1 5R9       0.122000
     40 H23         -2.6180    -0.8930     2.4090 ha         1 5R9       0.121000
@<TRIPOS>BOND
     1     1     3 1   
     2     1     5 1   
     3     1     8 1   
     4     2     3 1   
     5     2     7 1   
     6     2    20 1   
     7     2    21 1   
     8     3    22 1   
     9     3    23 1   
    10     4     5 1   
    11     4     6 1   
    12     4    24 1   
    13     4    25 1   
    14     5    26 1   
    15     5    27 1   
    16     6     7 1   
    17     6    28 1   
    18     6    29 1   
    19     7     9 1   
    20     8    30 1   
    21     8    31 1   
    22     8    32 1   
    23     9    10 1   
    24     9    33 1   
    25     9    34 1   
    26    10    11 ar  
    27    10    15 ar  
    28    11    12 ar  
    29    11    35 1   
    30    12    13 ar  
    31    12    36 1   
    32    13    14 ar  
    33    13    16 ar  
    34    14    15 ar  
    35    14    19 ar  
    36    15    37 1   
    37    16    17 ar  
    38    17    18 ar  
    39    17    38 1   
    40    18    19 ar  
    41    18    39 1   
    42    19    40 1   
@<TRIPOS>SUBSTRUCTURE
     1 5R9         1 TEMP              0 ****  ****    0 ROOT
