@<TRIPOS>MOLECULE
5R9
   40    42     1     0     0
SMALL
bcc


@<TRIPOS>ATOM
      1 N7           3.2190    -1.4150     0.5740 n3         1 5R9      -0.731600
      2 C5           2.0240     0.0670    -1.0680 c3         1 5R9       0.162800
      3 C6           2.2870    -1.3320    -0.5320 c3         1 5R9       0.185800
      4 C2           3.9750     0.8700     1.1170 c3         1 5R9      -0.072400
      5 C1           4.3330    -0.4870     0.5180 c3         1 5R9       0.186800
      6 C3           3.0200     1.7460     0.3200 c3         1 5R9       0.179800
      7 N4           1.7820     1.0830    -0.0540 n3         1 5R9      -0.712600
      8 C18          3.6180    -2.7860     0.7910 c3         1 5R9       0.164100
      9 C22          0.7680     2.0270    -0.4720 c3         1 5R9       0.218100
     10 C23         -0.6190     1.4340    -0.4850 ca         1 5R9      -0.089300
     11 C26         -1.6060     2.0130    -1.3180 ca         1 5R9      -0.121000
     12 C27         -2.8880     1.5390    -1.3450 ca         1 5R9      -0.169300
     13 C28         -3.2600     0.4420    -0.5370 ca         1 5R9       0.396600
     14 C29         -2.2780    -0.1460     0.2990 ca         1 5R9      -0.151300
     15 C30         -0.9640     0.3720     0.3100 ca         1 5R9      -0.088000
     16 N34         -4.5350    -0.0140    -0.5930 nb         1 5R9      -0.662000
     17 C35         -4.8590    -1.0340     0.1570 ca         1 5R9       0.416200
     18 C36         -3.9610    -1.6920     1.0230 ca         1 5R9      -0.255300
     19 C37         -2.6710    -1.2460     1.0930 ca         1 5R9      -0.075000
     20 H2           2.8500     0.3780    -1.7260 h1         1 5R9       0.033700
     21 H3           1.1530    -0.0160    -1.7220 h1         1 5R9       0.033700
     22 H4           2.6270    -1.9310    -1.3960 h1         1 5R9       0.029200
     23 H5           1.3390    -1.7760    -0.2080 h1         1 5R9       0.029200
     24 H6           3.5570     0.6910     2.1110 hc         1 5R9       0.049200
     25 H7           4.8960     1.4420     1.2600 hc         1 5R9       0.049200
     26 H8           5.1420    -0.9020     1.1240 h1         1 5R9       0.026200
     27 H9           4.7510    -0.3780    -0.4960 h1         1 5R9       0.026200
     28 H10          2.7760     2.6170     0.9320 h1         1 5R9       0.025200
     29 H11          3.5430     2.1310    -0.5730 h1         1 5R9       0.025200
     30 H13          4.1860    -3.2210    -0.0460 h1         1 5R9       0.026700
     31 H14          4.2310    -2.8660     1.6900 h1         1 5R9       0.026700
     32 H15          2.7330    -3.4090     0.9390 h1         1 5R9       0.026700
     33 H16          0.7690     2.8670     0.2300 h1         1 5R9       0.038200
     34 H17          0.9790     2.4660    -1.4610 h1         1 5R9       0.038200
     35 H18         -1.3330     2.8490    -1.9520 ha         1 5R9       0.129000
     36 H19         -3.6330     1.9880    -1.9900 ha         1 5R9       0.148000
     37 H20         -0.2220    -0.0880     0.9510 ha         1 5R9       0.159000
     38 H21         -5.8860    -1.3790     0.0930 h4         1 5R9       0.017100
     39 H22         -4.3010    -2.5320     1.6130 ha         1 5R9       0.140000
     40 H23         -1.9500    -1.7210     1.7460 ha         1 5R9       0.139000
@<TRIPOS>BOND
     1     1     3 1   
     2     1     5 1   
     3     1     8 1   
     4     2     3 1   
     5     2     7 1   
     6     2    20 1   
     7     2    21 1   
     8     3    22 1   
     9     3    23 1   
    10     4     5 1   
    11     4     6 1   
    12     4    24 1   
    13     4    25 1   
    14     5    26 1   
    15     5    27 1   
    16     6     7 1   
    17     6    28 1   
    18     6    29 1   
    19     7     9 1   
    20     8    30 1   
    21     8    31 1   
    22     8    32 1   
    23     9    10 1   
    24     9    33 1   
    25     9    34 1   
    26    10    11 ar  
    27    10    15 ar  
    28    11    12 ar  
    29    11    35 1   
    30    12    13 ar  
    31    12    36 1   
    32    13    14 ar  
    33    13    16 ar  
    34    14    15 ar  
    35    14    19 ar  
    36    15    37 1   
    37    16    17 ar  
    38    17    18 ar  
    39    17    38 1   
    40    18    19 ar  
    41    18    39 1   
    42    19    40 1   
@<TRIPOS>SUBSTRUCTURE
     1 5R9         1 TEMP              0 ****  ****    0 ROOT
