@<TRIPOS>MOLECULE
5RA
   69    72     1     0     0
SMALL
No Charge or Current Charge


@<TRIPOS>ATOM
      1 C1          -7.4830     3.0620     2.1800 c3         1 5RA       0.153100
      2 C51          5.5130     2.3670     0.2030 c3         1 5RA       0.186800
      3 C6          -7.1630     2.5940    -0.2010 c3         1 5RA       0.174800
      4 C8          -6.9600     0.1790    -1.2650 c3         1 5RA       0.185800
      5 C10         -5.5380     0.0200     0.7420 c3         1 5RA       0.172800
      6 N2          -7.1690     2.0270     1.1690 n3         1 5RA      -0.715600
      7 C7          -7.5020     1.6200    -1.3480 c3         1 5RA      -0.061400
      8 N9          -5.5760     0.0250    -0.7540 n3         1 5RA      -0.736600
      9 C11         -5.8850     1.3390     1.4940 c3         1 5RA       0.168800
     10 C22         -4.9220    -1.1810    -1.3240 c3         1 5RA       0.222100
     11 C23         -3.4300    -1.2700    -1.0090 ca         1 5RA      -0.090300
     12 C26         -2.9180    -2.3500    -0.2660 ca         1 5RA      -0.078000
     13 C27         -1.5420    -2.4350     0.0310 ca         1 5RA      -0.012000
     14 C28         -0.6490    -1.4190    -0.4180 cp         1 5RA       0.011000
     15 C29         -1.1820    -0.3480    -1.1740 ca         1 5RA      -0.114000
     16 C30         -2.5540    -0.2710    -1.4640 ca         1 5RA      -0.069000
     17 C34          0.8200    -1.4470    -0.1350 cp         1 5RA      -0.053000
     18 C35          1.7550    -1.3450    -1.1920 ca         1 5RA      -0.094500
     19 C36          3.1380    -1.3560    -0.9400 ca         1 5RA      -0.100500
     20 C37          3.6200    -1.4600     0.3790 ca         1 5RA      -0.078300
     21 C38          2.7010    -1.5520     1.4410 ca         1 5RA      -0.100500
     22 C39          1.3190    -1.5410     1.1870 ca         1 5RA      -0.094500
     23 C44         -1.0800    -3.5850     0.7620 cg         1 5RA       0.329000
     24 N45         -0.7190    -4.5240     1.3570 n1         1 5RA      -0.459000
     25 C46          5.1240    -1.4700     0.6490 c3         1 5RA       0.217100
     26 N47          5.8250    -0.2460     0.1790 n3         1 5RA      -0.714600
     27 C50          5.3650     0.9780     0.9050 c3         1 5RA       0.164800
     28 N52          6.7100     2.6520    -0.6410 n3         1 5RA      -0.732600
     29 C53          7.9780     2.0770    -0.1450 c3         1 5RA       0.187800
     30 C54          8.1500     0.5970    -0.5340 c3         1 5RA      -0.073400
     31 C55          7.2980    -0.4220     0.2470 c3         1 5RA       0.180800
     32 C66          6.8130     4.0880    -0.9840 c3         1 5RA       0.164100
     33 H1          -8.4570     3.5260     1.9720 h1         1 5RA       0.029033
     34 H2          -7.5310     2.6220     3.1850 h1         1 5RA       0.029033
     35 H3          -6.7190     3.8510     2.1850 h1         1 5RA       0.029033
     36 H4           4.6220     2.5030    -0.4240 h1         1 5RA       0.029200
     37 H5           5.4420     3.1230     0.9970 h1         1 5RA       0.029200
     38 H6          -7.8870     3.4180    -0.2700 h1         1 5RA       0.030200
     39 H7          -6.1790     3.0400    -0.4070 h1         1 5RA       0.030200
     40 H8          -7.6470    -0.4130    -0.6450 h1         1 5RA       0.032200
     41 H9          -7.0370    -0.2370    -2.2790 h1         1 5RA       0.032200
     42 H10         -6.2120    -0.7620     1.1160 h1         1 5RA       0.036700
     43 H11         -4.5340    -0.2600     1.0850 h1         1 5RA       0.036700
     44 H13         -8.5920     1.5600    -1.4400 hc         1 5RA       0.040700
     45 H14         -7.1460     2.0710    -2.2820 hc         1 5RA       0.040700
     46 H16         -5.8730     1.0910     2.5640 h1         1 5RA       0.031700
     47 H17         -5.0520     2.0380     1.3360 h1         1 5RA       0.031700
     48 H18         -5.4260    -2.0880    -0.9640 h1         1 5RA       0.040700
     49 H19         -5.0220    -1.1760    -2.4180 h1         1 5RA       0.040700
     50 H20         -3.5940    -3.1300     0.0800 ha         1 5RA       0.122000
     51 H21         -0.5210     0.4390    -1.5290 ha         1 5RA       0.122000
     52 H22         -2.9400     0.5700    -2.0380 ha         1 5RA       0.136000
     53 H23          1.4020    -1.2630    -2.2180 ha         1 5RA       0.116500
     54 H24          3.8390    -1.2770    -1.7680 ha         1 5RA       0.125500
     55 H25          3.0560    -1.6250     2.4670 ha         1 5RA       0.125500
     56 H26          0.6260    -1.5960     2.0240 ha         1 5RA       0.116500
     57 H27          5.3000    -1.6130     1.7240 h1         1 5RA       0.038700
     58 H28          5.5380    -2.3530     0.1430 h1         1 5RA       0.038700
     59 H30          5.8910     1.0360     1.8670 h1         1 5RA       0.032700
     60 H31          4.3010     0.8900     1.1600 h1         1 5RA       0.032700
     61 H33          8.8220     2.6180    -0.5950 h1         1 5RA       0.025700
     62 H34          8.0680     2.1970     0.9440 h1         1 5RA       0.025700
     63 H35          7.9490     0.4840    -1.6060 hc         1 5RA       0.049200
     64 H36          9.2030     0.3290    -0.3900 hc         1 5RA       0.049200
     65 H37          7.6220    -0.4130     1.2970 h1         1 5RA       0.025200
     66 H38          7.5610    -1.4130    -0.1490 h1         1 5RA       0.025200
     67 H39          7.0240     4.6890    -0.0900 h1         1 5RA       0.026367
     68 H40          7.6180     4.2580    -1.7120 h1         1 5RA       0.026367
     69 H41          5.8760     4.4490    -1.4290 h1         1 5RA       0.026367
@<TRIPOS>BOND
     1     1     6 1   
     2     1    33 1   
     3     1    34 1   
     4     1    35 1   
     5     2    27 1   
     6     2    28 1   
     7     2    36 1   
     8     2    37 1   
     9     3     6 1   
    10     3     7 1   
    11     3    38 1   
    12     3    39 1   
    13     4     7 1   
    14     4     8 1   
    15     4    40 1   
    16     4    41 1   
    17     5     8 1   
    18     5     9 1   
    19     5    42 1   
    20     5    43 1   
    21     6     9 1   
    22     7    44 1   
    23     7    45 1   
    24     8    10 1   
    25     9    46 1   
    26     9    47 1   
    27    10    11 1   
    28    10    48 1   
    29    10    49 1   
    30    11    12 ar  
    31    11    16 ar  
    32    12    13 ar  
    33    12    50 1   
    34    13    14 ar  
    35    13    23 1   
    36    14    15 ar  
    37    14    17 1   
    38    15    16 ar  
    39    15    51 1   
    40    16    52 1   
    41    17    18 ar  
    42    17    22 ar  
    43    18    19 ar  
    44    18    53 1   
    45    19    20 ar  
    46    19    54 1   
    47    20    21 ar  
    48    20    25 1   
    49    21    22 ar  
    50    21    55 1   
    51    22    56 1   
    52    23    24 3   
    53    25    26 1   
    54    25    57 1   
    55    25    58 1   
    56    26    27 1   
    57    26    31 1   
    58    27    59 1   
    59    27    60 1   
    60    28    29 1   
    61    28    32 1   
    62    29    30 1   
    63    29    61 1   
    64    29    62 1   
    65    30    31 1   
    66    30    63 1   
    67    30    64 1   
    68    31    65 1   
    69    31    66 1   
    70    32    67 1   
    71    32    68 1   
    72    32    69 1   
@<TRIPOS>SUBSTRUCTURE
     1 5RA         1 TEMP              0 ****  ****    0 ROOT
