@<TRIPOS>MOLECULE
5RA
   69    72     1     0     0
SMALL
bcc


@<TRIPOS>ATOM
      1 C1          -7.1340     3.3530     1.7230 c3         1 5RA       0.153100
      2 C51          5.2290     2.2150     0.3510 c3         1 5RA       0.186800
      3 C6          -6.5730     2.6200    -0.4930 c3         1 5RA       0.174800
      4 C8          -6.7970     0.1630    -1.2310 c3         1 5RA       0.185800
      5 C10         -5.6460     0.0110     0.8750 c3         1 5RA       0.172800
      6 N2          -6.8600     2.2100     0.8750 n3         1 5RA      -0.715600
      7 C7          -7.0500     1.6320    -1.5520 c3         1 5RA      -0.061400
      8 N9          -5.5210    -0.0730    -0.5710 n3         1 5RA      -0.736600
      9 C11         -5.7740     1.4200     1.4270 c3         1 5RA       0.168800
     10 C22         -4.8860    -1.3070    -0.9780 c3         1 5RA       0.222100
     11 C23         -3.4100    -1.3310    -0.6650 ca         1 5RA      -0.090300
     12 C26         -2.7770    -2.5290    -0.3810 ca         1 5RA      -0.096000
     13 C27         -1.4000    -2.5730    -0.1560 ca         1 5RA      -0.012000
     14 C28         -0.6190    -1.4100    -0.1920 cp         1 5RA       0.011000
     15 C29         -1.2740    -0.2140    -0.4760 ca         1 5RA      -0.132000
     16 C30         -2.6390    -0.1720    -0.7090 ca         1 5RA      -0.087000
     17 C34          0.8370    -1.4250     0.0460 cp         1 5RA      -0.053000
     18 C35          1.6980    -0.7860    -0.8480 ca         1 5RA      -0.112500
     19 C36          3.0660    -0.7800    -0.6350 ca         1 5RA      -0.118500
     20 C37          3.6170    -1.4070     0.4800 ca         1 5RA      -0.078300
     21 C38          2.7570    -2.0260     1.3810 ca         1 5RA      -0.118500
     22 C39          1.3860    -2.0400     1.1690 ca         1 5RA      -0.112500
     23 C44         -0.8050    -3.8530     0.0650 cg         1 5RA       0.239800
     24 N45         -0.3600    -4.8990     0.2490 n1         1 5RA      -0.369800
     25 C46          5.1100    -1.4460     0.6900 c3         1 5RA       0.217100
     26 N47          5.7590    -0.2340     0.2380 n3         1 5RA      -0.714600
     27 C50          5.4430     0.9030     1.0890 c3         1 5RA       0.164800
     28 N52          6.2240     2.5360    -0.6520 n3         1 5RA      -0.732600
     29 C53          7.5830     2.1340    -0.3390 c3         1 5RA       0.187800
     30 C54          7.8580     0.6870    -0.7390 c3         1 5RA      -0.073400
     31 C55          7.1950    -0.3970     0.0990 c3         1 5RA       0.180800
     32 C66          6.1060     3.9190    -1.0500 c3         1 5RA       0.164100
     33 H1          -7.9940     3.9050     1.3420 h1         1 5RA       0.029033
     34 H2          -7.3770     3.0190     2.7330 h1         1 5RA       0.029033
     35 H3          -6.2910     4.0580     1.8010 h1         1 5RA       0.029033
     36 H4           4.2490     2.1940    -0.1390 h1         1 5RA       0.029200
     37 H5           5.1690     2.9980     1.1280 h1         1 5RA       0.029200
     38 H6          -7.0640     3.5760    -0.6880 h1         1 5RA       0.030200
     39 H7          -5.4950     2.8050    -0.6210 h1         1 5RA       0.030200
     40 H8          -7.6240    -0.2310    -0.6230 h1         1 5RA       0.032200
     41 H9          -6.8240    -0.4010    -2.1650 h1         1 5RA       0.032200
     42 H10         -6.4970    -0.5950     1.2270 h1         1 5RA       0.036700
     43 H11         -4.7520    -0.4170     1.3350 h1         1 5RA       0.036700
     44 H13         -8.1220     1.7600    -1.7180 hc         1 5RA       0.040700
     45 H14         -6.5580     1.8960    -2.4920 hc         1 5RA       0.040700
     46 H16         -5.9360     1.3160     2.5040 h1         1 5RA       0.031700
     47 H17         -4.8080     1.9400     1.3050 h1         1 5RA       0.031700
     48 H18         -5.3590    -2.2030    -0.5430 h1         1 5RA       0.040700
     49 H19         -4.9950    -1.4080    -2.0620 h1         1 5RA       0.040700
     50 H20         -3.3510    -3.4470    -0.3430 ha         1 5RA       0.140000
     51 H21         -0.7030     0.7050    -0.4970 ha         1 5RA       0.140000
     52 H22         -3.1200     0.7750    -0.9160 ha         1 5RA       0.154000
     53 H23          1.2950    -0.3050    -1.7310 ha         1 5RA       0.134500
     54 H24          3.7180    -0.2760    -1.3370 ha         1 5RA       0.143500
     55 H25          3.1590    -2.4950     2.2710 ha         1 5RA       0.143500
     56 H26          0.7450    -2.5100     1.9040 ha         1 5RA       0.134500
     57 H27          5.3220    -1.6820     1.7460 h1         1 5RA       0.038700
     58 H28          5.5130    -2.2840     0.1120 h1         1 5RA       0.038700
     59 H30          6.2170     1.0290     1.8610 h1         1 5RA       0.032700
     60 H31          4.5170     0.7090     1.6350 h1         1 5RA       0.032700
     61 H33          8.2560     2.7630    -0.9260 h1         1 5RA       0.025700
     62 H34          7.8560     2.3110     0.7140 h1         1 5RA       0.025700
     63 H35          7.5560     0.5700    -1.7830 hc         1 5RA       0.049200
     64 H36          8.9370     0.5130    -0.7010 hc         1 5RA       0.049200
     65 H37          7.6830    -0.4390     1.0890 h1         1 5RA       0.025200
     66 H38          7.3910    -1.3590    -0.3800 h1         1 5RA       0.025200
     67 H39          6.3270     4.6340    -0.2410 h1         1 5RA       0.026367
     68 H40          6.7790     4.1370    -1.8810 h1         1 5RA       0.026367
     69 H41          5.0880     4.1200    -1.3890 h1         1 5RA       0.026367
@<TRIPOS>BOND
     1     1     6 1   
     2     1    33 1   
     3     1    34 1   
     4     1    35 1   
     5     2    27 1   
     6     2    28 1   
     7     2    36 1   
     8     2    37 1   
     9     3     6 1   
    10     3     7 1   
    11     3    38 1   
    12     3    39 1   
    13     4     7 1   
    14     4     8 1   
    15     4    40 1   
    16     4    41 1   
    17     5     8 1   
    18     5     9 1   
    19     5    42 1   
    20     5    43 1   
    21     6     9 1   
    22     7    44 1   
    23     7    45 1   
    24     8    10 1   
    25     9    46 1   
    26     9    47 1   
    27    10    11 1   
    28    10    48 1   
    29    10    49 1   
    30    11    12 ar  
    31    11    16 ar  
    32    12    13 ar  
    33    12    50 1   
    34    13    14 ar  
    35    13    23 1   
    36    14    15 ar  
    37    14    17 1   
    38    15    16 ar  
    39    15    51 1   
    40    16    52 1   
    41    17    18 ar  
    42    17    22 ar  
    43    18    19 ar  
    44    18    53 1   
    45    19    20 ar  
    46    19    54 1   
    47    20    21 ar  
    48    20    25 1   
    49    21    22 ar  
    50    21    55 1   
    51    22    56 1   
    52    23    24 3   
    53    25    26 1   
    54    25    57 1   
    55    25    58 1   
    56    26    27 1   
    57    26    31 1   
    58    27    59 1   
    59    27    60 1   
    60    28    29 1   
    61    28    32 1   
    62    29    30 1   
    63    29    61 1   
    64    29    62 1   
    65    30    31 1   
    66    30    63 1   
    67    30    64 1   
    68    31    65 1   
    69    31    66 1   
    70    32    67 1   
    71    32    68 1   
    72    32    69 1   
@<TRIPOS>SUBSTRUCTURE
     1 5RA         1 TEMP              0 ****  ****    0 ROOT
