@<TRIPOS>MOLECULE
5RC
   52    55     1     0     0
SMALL
bcc


@<TRIPOS>ATOM
      1 C18          5.3040    -0.5670     0.4830 c6         1 5RC       0.075700
      2 C16          2.8890    -0.3480     0.8990 c          1 5RC       0.722700
      3 C15         -1.1890     1.3480    -2.1520 c3         1 5RC      -0.015100
      4 C19          6.3300     0.5740     0.4110 c6         1 5RC       0.146500
      5 C20          6.5730     1.0080    -1.0370 c6         1 5RC      -0.119400
      6 C21          6.9870    -0.1650    -1.9210 c6         1 5RC      -0.070400
      7 F30         -7.7310    -0.1460    -1.1910 f          1 5RC      -0.228967
      8 C22          5.9680    -1.3000    -1.8640 c6         1 5RC      -0.129400
      9 C23          5.7090    -1.7180    -0.4380 c6         1 5RC       0.407600
     10 C11          0.4420     0.2140     1.0660 cc         1 5RC      -0.062000
     11 C12          1.5970     0.1050     0.3490 cd         1 5RC      -0.153700
     12 N1          -4.1440     0.8440     1.3750 na         1 5RC       0.055200
     13 C2          -3.2250     0.3830     0.4430 cd         1 5RC       0.383500
     14 C3          -1.9910     0.8410     0.8740 cc         1 5RC      -0.181800
     15 C4          -2.2900     1.5400     2.0560 cc         1 5RC       0.406500
     16 N5          -3.5780     1.5450     2.3540 nd         1 5RC      -0.561100
     17 C6          -5.4580     0.5760     1.2700 cc         1 5RC       0.070700
     18 C7          -5.8600    -0.1760     0.2100 cd         1 5RC      -0.397600
     19 C8          -4.8790    -0.6340    -0.7140 cc         1 5RC       0.474200
     20 N9          -3.6130    -0.3660    -0.6000 nd         1 5RC      -0.630000
     21 C10         -0.6710     0.6320     0.2890 cc         1 5RC      -0.054800
     22 S13          1.3190     0.5020    -1.3040 ss         1 5RC      -0.084800
     23 C14         -0.3410     0.8340    -1.0310 cd         1 5RC      -0.004400
     24 N17          3.9790    -0.1120     0.1330 ns         1 5RC      -0.576900
     25 F24          6.8380    -2.2950     0.0860 f          1 5RC      -0.235300
     26 O25          2.9390    -0.8920     1.9900 o          1 5RC      -0.573100
     27 F26          4.7500    -2.6920    -0.3920 f          1 5RC      -0.235300
     28 N27          5.9210     1.6300     1.3170 n8         1 5RC      -0.869800
     29 C28         -7.2900    -0.5410     0.0090 c3         1 5RC       0.745200
     30 F29         -8.0850     0.0070     0.9300 f          1 5RC      -0.228967
     31 F31         -7.4660    -1.8670     0.0640 f          1 5RC      -0.228967
     32 C32         -1.5700     2.8160    -1.9610 c3         1 5RC      -0.084100
     33 H1           5.2630    -0.9360     1.5080 h1         1 5RC       0.125700
     34 H2          -0.6580     1.2310    -3.0990 hc         1 5RC       0.061200
     35 H3          -2.0870     0.7340    -2.2290 hc         1 5RC       0.061200
     36 H4           7.2710     0.1710     0.7980 h1         1 5RC       0.080700
     37 H5           5.6730     1.4860    -1.4440 hc         1 5RC       0.041700
     38 H6           7.3490     1.7770    -1.0480 hc         1 5RC       0.041700
     39 H7           7.0970     0.1630    -2.9540 hc         1 5RC       0.054200
     40 H8           7.9680    -0.5310    -1.6080 hc         1 5RC       0.054200
     41 H9           5.0240    -0.9750    -2.3100 hc         1 5RC       0.067700
     42 H10          6.3060    -2.1630    -2.4420 hc         1 5RC       0.067700
     43 H11          0.3800    -0.0050     2.1230 ha         1 5RC       0.173000
     44 H12         -1.5910     2.0520     2.7000 h4         1 5RC       0.059800
     45 H13         -6.0980     0.9780     2.0410 h4         1 5RC       0.198000
     46 H14         -5.1750    -1.2400    -1.5640 h4         1 5RC       0.046100
     47 H15          3.8760     0.4320    -0.7100 hn         1 5RC       0.310500
     48 H16          6.6610     2.3190     1.3830 hn         1 5RC       0.341800
     49 H17          5.1200     2.1230     0.9410 hn         1 5RC       0.341800
     50 H19         -2.1840     3.1570    -2.7950 hc         1 5RC       0.037033
     51 H20         -2.1390     2.9630    -1.0440 hc         1 5RC       0.037033
     52 H21         -0.6830     3.4480    -1.9150 hc         1 5RC       0.037033
@<TRIPOS>BOND
     1     1     4 1   
     2     1     9 1   
     3     1    24 1   
     4     1    33 1   
     5     2    11 1   
     6     2    24 1   
     7     2    26 2   
     8     3    23 1   
     9     3    32 1   
    10     3    34 1   
    11     3    35 1   
    12     4     5 1   
    13     4    28 1   
    14     4    36 1   
    15     5     6 1   
    16     5    37 1   
    17     5    38 1   
    18     6     8 1   
    19     6    39 1   
    20     6    40 1   
    21     7    29 1   
    22     8     9 1   
    23     8    41 1   
    24     8    42 1   
    25     9    25 1   
    26     9    27 1   
    27    10    11 2   
    28    10    21 1   
    29    10    43 1   
    30    11    22 1   
    31    12    13 1   
    32    12    16 1   
    33    12    17 1   
    34    13    14 2   
    35    13    20 1   
    36    14    15 1   
    37    14    21 1   
    38    15    16 2   
    39    15    44 1   
    40    17    18 2   
    41    17    45 1   
    42    18    19 1   
    43    18    29 1   
    44    19    20 2   
    45    19    46 1   
    46    21    23 2   
    47    22    23 1   
    48    24    47 1   
    49    28    48 1   
    50    28    49 1   
    51    29    30 1   
    52    29    31 1   
    53    32    50 1   
    54    32    51 1   
    55    32    52 1   
@<TRIPOS>SUBSTRUCTURE
     1 5RC         1 TEMP              0 ****  ****    0 ROOT
