@<TRIPOS>MOLECULE
5RC
   52    55     1     0     0
SMALL
No Charge or Current Charge


@<TRIPOS>ATOM
      1 C18          5.4680    -0.1020     0.6500 c6         1 5RC       0.075700
      2 C16          2.9800    -0.0340     1.1700 c          1 5RC       0.655700
      3 C15         -1.0970     1.5710    -1.9780 c3         1 5RC      -0.015100
      4 C19          6.4200     0.9170    -0.0590 c6         1 5RC       0.146500
      5 C20          6.4030     0.7410    -1.6020 c6         1 5RC      -0.119400
      6 C21          6.7970    -0.7030    -2.0080 c6         1 5RC      -0.070400
      7 F30         -7.6460     0.9820    -1.2900 f          1 5RC      -0.107667
      8 C22          5.8970    -1.7550    -1.3090 c6         1 5RC      -0.129400
      9 C23          5.8720    -1.5500     0.2280 c6         1 5RC       0.165000
     10 C11          0.4730     0.1130     1.1850 cc         1 5RC      -0.044000
     11 C12          1.6730     0.2520     0.5420 cd         1 5RC      -0.298600
     12 N1          -4.1630     0.1600     1.5420 na         1 5RC       0.105900
     13 C2          -3.2720     0.2890     0.4750 cd         1 5RC       0.383500
     14 C3          -2.0060     0.3270     1.0020 cc         1 5RC      -0.181800
     15 C4          -2.2400     0.1860     2.3930 cc         1 5RC       0.406500
     16 N5          -3.5090     0.1010     2.7620 nd         1 5RC      -0.561100
     17 C6          -5.5320     0.0730     1.3220 cc         1 5RC       0.038000
     18 C7          -5.8620     0.0560    -0.0380 cd         1 5RC      -0.332300
     19 C8          -4.8760     0.1140    -1.0180 cc         1 5RC       0.408900
     20 N9          -3.5600     0.2120    -0.8670 nd         1 5RC      -0.630000
     21 C10         -0.6760     0.4420     0.4020 cc         1 5RC      -0.054800
     22 S13          1.4410     0.8020    -1.1140 ss         1 5RC       0.205000
     23 C14         -0.3200     0.8900    -0.8690 cd         1 5RC      -0.149300
     24 N17          4.0460     0.1800     0.3310 ns         1 5RC      -0.509900
     25 F24          7.1430    -1.8510     0.7550 f          1 5RC      -0.114000
     26 O25          3.1120    -0.4200     2.3220 o          1 5RC      -0.573100
     27 F26          4.9890    -2.4840     0.7990 f          1 5RC      -0.114000
     28 N27          6.0800     2.3160     0.2890 n8         1 5RC      -0.980200
     29 C28         -7.3020    -0.0460    -0.4820 c3         1 5RC       0.381300
     30 F29         -8.1720    -0.0370     0.5530 f          1 5RC      -0.107667
     31 F31         -7.5260    -1.1860    -1.1730 f          1 5RC      -0.107667
     32 C32         -1.7610     2.8930    -1.5370 c3         1 5RC      -0.084100
     33 H1           5.6100    -0.0060     1.7370 h1         1 5RC       0.125700
     34 H2          -0.4090     1.8230    -2.7950 hc         1 5RC       0.061200
     35 H3          -1.8160     0.8970    -2.4500 hc         1 5RC       0.061200
     36 H4           7.4510     0.7380     0.2880 h1         1 5RC       0.080700
     37 H5           5.4090     0.9780    -2.0070 hc         1 5RC       0.041700
     38 H6           7.1030     1.4490    -2.0690 hc         1 5RC       0.041700
     39 H7           6.7260    -0.8170    -3.0980 hc         1 5RC       0.054200
     40 H8           7.8500    -0.8840    -1.7480 hc         1 5RC       0.054200
     41 H9           4.8750    -1.6870    -1.7060 hc         1 5RC       0.067700
     42 H10          6.2530    -2.7670    -1.5460 hc         1 5RC       0.067700
     43 H11          0.4070    -0.2410     2.2080 ha         1 5RC       0.155000
     44 H12         -1.4990     0.1670     3.1790 h4         1 5RC       0.059800
     45 H13         -6.1930     0.0110     2.1770 h4         1 5RC       0.180000
     46 H14         -5.1360     0.0790    -2.0680 h4         1 5RC       0.046100
     47 H15          3.8210     0.4880    -0.6050 hn         1 5RC       0.310500
     48 H16          6.5130     2.9440    -0.3980 hn         1 5RC       0.397000
     49 H17          5.0740     2.4530     0.1450 hn         1 5RC       0.397000
     50 H19         -2.3110     3.3420    -2.3730 hc         1 5RC       0.037033
     51 H20         -2.4620     2.7370    -0.7100 hc         1 5RC       0.037033
     52 H21         -1.0000     3.6090    -1.2040 hc         1 5RC       0.037033
@<TRIPOS>BOND
     1     1     4 1   
     2     1     9 1   
     3     1    24 1   
     4     1    33 1   
     5     2    11 1   
     6     2    24 1   
     7     2    26 2   
     8     3    23 1   
     9     3    32 1   
    10     3    34 1   
    11     3    35 1   
    12     4     5 1   
    13     4    28 1   
    14     4    36 1   
    15     5     6 1   
    16     5    37 1   
    17     5    38 1   
    18     6     8 1   
    19     6    39 1   
    20     6    40 1   
    21     7    29 1   
    22     8     9 1   
    23     8    41 1   
    24     8    42 1   
    25     9    25 1   
    26     9    27 1   
    27    10    11 2   
    28    10    21 1   
    29    10    43 1   
    30    11    22 1   
    31    12    13 1   
    32    12    16 1   
    33    12    17 1   
    34    13    14 2   
    35    13    20 1   
    36    14    15 1   
    37    14    21 1   
    38    15    16 2   
    39    15    44 1   
    40    17    18 2   
    41    17    45 1   
    42    18    19 1   
    43    18    29 1   
    44    19    20 2   
    45    19    46 1   
    46    21    23 2   
    47    22    23 1   
    48    24    47 1   
    49    28    48 1   
    50    28    49 1   
    51    29    30 1   
    52    29    31 1   
    53    32    50 1   
    54    32    51 1   
    55    32    52 1   
@<TRIPOS>SUBSTRUCTURE
     1 5RC         1 TEMP              0 ****  ****    0 ROOT
