@<TRIPOS>MOLECULE
5RD
   34    34     1     0     0
SMALL
bcc


@<TRIPOS>ATOM
      1 C11         -1.8410     1.2580     0.5500 c3         1 5RD       0.197100
      2 C13         -4.1350     0.6070     0.1670 c3         1 5RD       0.158800
      3 C14         -5.0530    -0.5480    -0.2010 c3         1 5RD      -0.081400
      4 C15         -6.5250    -0.1540    -0.1950 c3         1 5RD      -0.074400
      5 C16         -7.4460    -1.3120    -0.5510 c3         1 5RD      -0.089100
      6 C01          2.2610     0.1030     0.1680 ca         1 5RD      -0.270500
      7 C02          1.3790    -0.1450    -0.8780 ca         1 5RD      -0.031500
      8 C03          0.0520     0.2180    -0.7400 ca         1 5RD      -0.138500
      9 C04         -0.4020     0.8360     0.4260 ca         1 5RD      -0.032300
     10 C05          0.4980     1.0660     1.4600 ca         1 5RD      -0.138500
     11 C06          1.8320     0.7020     1.3410 ca         1 5RD      -0.031500
     12 O08          4.5610    -0.3570     1.3200 o          1 5RD      -0.615800
     13 O09          4.0550    -1.5830    -0.7990 o          1 5RD      -0.615800
     14 N10          4.5210     0.8470    -0.9780 n8         1 5RD      -0.888700
     15 N12         -2.7410     0.2030     0.1330 n7         1 5RD      -0.807200
     16 H1          -2.0310     1.6120     1.5740 h1         1 5RD       0.041200
     17 H2          -2.0070     2.1200    -0.1040 h1         1 5RD       0.041200
     18 H3          -4.2710     1.4220    -0.5510 h1         1 5RD       0.029700
     19 H4          -4.4310     1.0090     1.1490 h1         1 5RD       0.029700
     20 H5          -4.7760    -0.9260    -1.1890 hc         1 5RD       0.046200
     21 H6          -4.8970    -1.3730     0.5040 hc         1 5RD       0.046200
     22 H7          -6.7930     0.2350     0.7920 hc         1 5RD       0.037200
     23 H8          -6.6830     0.6690    -0.9000 hc         1 5RD       0.037200
     24 H9          -7.2220    -1.7070    -1.5440 hc         1 5RD       0.033367
     25 H10         -7.3400    -2.1330     0.1610 hc         1 5RD       0.033367
     26 H11         -8.4930    -1.0050    -0.5460 hc         1 5RD       0.033367
     27 H12          1.7180    -0.6160    -1.7910 ha         1 5RD       0.154500
     28 H13         -0.6430     0.0200    -1.5440 ha         1 5RD       0.144000
     29 H14          0.1570     1.5310     2.3770 ha         1 5RD       0.144000
     30 H15          2.5160     0.8820     2.1590 ha         1 5RD       0.154500
     31 H16          4.6070     1.7320    -0.4860 hn         1 5RD       0.415800
     32 H17          5.4110     0.5980    -1.4020 hn         1 5RD       0.415800
     33 H18         -2.6150    -0.5950     0.7470 hn         1 5RD       0.357800
     34 S07          3.9570    -0.3650    -0.0060 sy         1 5RD       1.264200
@<TRIPOS>BOND
     1     1     9 1   
     2     1    15 1   
     3     1    16 1   
     4     1    17 1   
     5     2     3 1   
     6     2    15 1   
     7     2    18 1   
     8     2    19 1   
     9     3     4 1   
    10     3    20 1   
    11     3    21 1   
    12     4     5 1   
    13     4    22 1   
    14     4    23 1   
    15     5    24 1   
    16     5    25 1   
    17     5    26 1   
    18     6     7 ar  
    19     6    11 ar  
    20     6    34 1   
    21     7     8 ar  
    22     7    27 1   
    23     8     9 ar  
    24     8    28 1   
    25     9    10 ar  
    26    10    11 ar  
    27    10    29 1   
    28    11    30 1   
    29    12    34 2   
    30    13    34 2   
    31    14    31 1   
    32    14    32 1   
    33    14    34 1   
    34    15    33 1   
@<TRIPOS>SUBSTRUCTURE
     1 5RD         1 TEMP              0 ****  ****    0 ROOT
