@<TRIPOS>MOLECULE
5RD
   34    34     1     0     0
SMALL
No Charge or Current Charge


@<TRIPOS>ATOM
      1 C11         -1.8060     1.4520     0.0630 c3         1 5RD       0.197100
      2 C13         -4.1810     0.7080     0.0520 c3         1 5RD       0.158800
      3 C14         -5.0730    -0.5460    -0.0480 c3         1 5RD      -0.081400
      4 C15         -6.5810    -0.2180     0.0090 c3         1 5RD      -0.074400
      5 C16         -7.4760    -1.4680    -0.0910 c3         1 5RD      -0.089100
      6 C01          2.3010     0.0190    -0.0530 ca         1 5RD      -0.270500
      7 C02          1.5800     0.2050    -1.2510 ca         1 5RD      -0.013500
      8 C03          0.2530     0.6670    -1.2080 ca         1 5RD      -0.120500
      9 C04         -0.3680     0.9480     0.0240 ca         1 5RD      -0.032300
     10 C05          0.3550     0.7590     1.2180 ca         1 5RD      -0.120500
     11 C06          1.6820     0.2980     1.1840 ca         1 5RD      -0.013500
     12 O08          4.4030    -1.0540     1.2090 o          1 5RD      -0.545000
     13 O09          4.2430    -1.3160    -1.3420 o          1 5RD      -0.545000
     14 N10          4.8300     0.8280    -0.2820 n8         1 5RD      -0.999100
     15 N12         -2.7600     0.3280    -0.0130 n7         1 5RD      -0.862400
     16 H1          -1.9600     2.0230     0.9890 h1         1 5RD       0.041200
     17 H2          -1.9640     2.1450    -0.7750 h1         1 5RD       0.041200
     18 H3          -4.4310     1.3910    -0.7720 h1         1 5RD       0.029700
     19 H4          -4.3960     1.2270     0.9960 h1         1 5RD       0.029700
     20 H5          -4.8540    -1.0700    -0.9870 hc         1 5RD       0.046200
     21 H6          -4.8230    -1.2330     0.7700 hc         1 5RD       0.046200
     22 H7          -6.8030     0.3060     0.9470 hc         1 5RD       0.037200
     23 H8          -6.8340     0.4690    -0.8090 hc         1 5RD       0.037200
     24 H9          -7.3020    -1.9960    -1.0360 hc         1 5RD       0.033367
     25 H10         -7.2710    -2.1590     0.7360 hc         1 5RD       0.033367
     26 H11         -8.5350    -1.1850    -0.0460 hc         1 5RD       0.033367
     27 H12          2.0420    -0.0050    -2.2140 ha         1 5RD       0.136500
     28 H13         -0.2970     0.8060    -2.1360 ha         1 5RD       0.126000
     29 H14         -0.1140     0.9700     2.1770 ha         1 5RD       0.126000
     30 H15          2.2210     0.1580     2.1200 ha         1 5RD       0.136500
     31 H16          4.1640     1.5200     0.0510 hn         1 5RD       0.471000
     32 H17          5.5010     0.7490     0.4790 hn         1 5RD       0.471000
     33 H18         -2.5610    -0.3050     0.7700 hn         1 5RD       0.413000
     34 S07          3.9970    -0.5690    -0.1080 sy         1 5RD       1.122600
@<TRIPOS>BOND
     1     1     9 1   
     2     1    15 1   
     3     1    16 1   
     4     1    17 1   
     5     2     3 1   
     6     2    15 1   
     7     2    18 1   
     8     2    19 1   
     9     3     4 1   
    10     3    20 1   
    11     3    21 1   
    12     4     5 1   
    13     4    22 1   
    14     4    23 1   
    15     5    24 1   
    16     5    25 1   
    17     5    26 1   
    18     6     7 ar  
    19     6    11 ar  
    20     6    34 1   
    21     7     8 ar  
    22     7    27 1   
    23     8     9 ar  
    24     8    28 1   
    25     9    10 ar  
    26    10    11 ar  
    27    10    29 1   
    28    11    30 1   
    29    12    34 2   
    30    13    34 2   
    31    14    31 1   
    32    14    32 1   
    33    14    34 1   
    34    15    33 1   
@<TRIPOS>SUBSTRUCTURE
     1 5RD         1 TEMP              0 ****  ****    0 ROOT
