@<TRIPOS>MOLECULE
5RE
   56    58     1     0     0
SMALL
No Charge or Current Charge


@<TRIPOS>ATOM
      1 C14          0.8200     0.7500     0.1210 c3         1 5RE       0.038700
      2 C10         -1.4180     1.8460     0.6080 c          1 5RE       0.608100
      3 C01         -4.5970     1.2140     0.4750 ca         1 5RE      -0.126000
      4 C02         -5.6360     0.3630     0.0700 ca         1 5RE       0.140100
      5 O03         -6.5160    -0.1190     0.9910 oh         1 5RE      -0.533100
      6 C05         -5.7730     0.0120    -1.2820 ca         1 5RE      -0.204000
      7 C06         -4.8630     0.5120    -2.2300 ca         1 5RE      -0.068000
      8 C07         -3.8210     1.3630    -1.8230 ca         1 5RE      -0.146000
      9 C08         -3.6830     1.7220    -0.4680 ca         1 5RE      -0.043300
     10 C09         -2.5560     2.6490    -0.0240 c3         1 5RE      -0.110100
     11 O11         -1.4580     1.4480     1.7650 o          1 5RE      -0.597100
     12 N12         -0.3450     1.6000    -0.2220 ns         1 5RE      -0.490900
     13 C15          0.6390    -0.6890    -0.4330 c3         1 5RE      -0.041100
     14 C16         -0.6880    -1.3310    -0.0370 ca         1 5RE      -0.099300
     15 C17         -0.8860    -1.7920     1.2800 ca         1 5RE      -0.081500
     16 C18         -2.1130    -2.3710     1.6500 ca         1 5RE      -0.147000
     17 C19         -3.1410    -2.4940     0.7040 ca         1 5RE       0.169000
     18 F20         -4.3190    -3.0520     1.0580 f          1 5RE      -0.179000
     19 C21         -2.9500    -2.0450    -0.6110 ca         1 5RE      -0.147000
     20 C22         -1.7260    -1.4610    -0.9820 ca         1 5RE      -0.081500
     21 C23          2.1390     1.3920    -0.3960 c          1 5RE       0.588100
     22 O24          2.1650     2.3260    -1.1900 o          1 5RE      -0.588100
     23 N25          3.2950     0.8300     0.1030 ns         1 5RE      -0.502900
     24 C27          4.6490     1.2620    -0.2320 c3         1 5RE       0.164000
     25 C28          5.0290     2.5510     0.5270 c3         1 5RE      -0.105100
     26 C29          5.6370     0.1250     0.0200 ca         1 5RE      -0.093300
     27 C30          6.2990    -0.4860    -1.0640 ca         1 5RE      -0.097500
     28 C31          7.2050    -1.5380    -0.8440 ca         1 5RE      -0.110000
     29 C32          7.4530    -1.9920     0.4620 ca         1 5RE      -0.107000
     30 C33          6.7940    -1.3930     1.5480 ca         1 5RE      -0.110000
     31 C34          5.8890    -0.3400     1.3290 ca         1 5RE      -0.097500
     32 H141         0.9060     0.6950     1.2140 h1         1 5RE       0.076700
     33 H04         -7.1600    -0.6970     0.5290 ho         1 5RE       0.464000
     34 H051        -6.5760    -0.6460    -1.6050 ha         1 5RE       0.113000
     35 H061        -4.9640     0.2400    -3.2790 ha         1 5RE       0.115000
     36 H071        -3.1230     1.7430    -2.5650 ha         1 5RE       0.114000
     37 H092        -2.9410     3.3590     0.7180 hc         1 5RE       0.070700
     38 H091        -2.1800     3.2000    -0.8940 hc         1 5RE       0.070700
     39 H13         -0.3860     2.0010    -1.1520 hn         1 5RE       0.324500
     40 H151         0.7280    -0.6570    -1.5260 hc         1 5RE       0.065200
     41 H152         1.4670    -1.3170    -0.0840 hc         1 5RE       0.065200
     42 H171        -0.0930    -1.6940     2.0190 ha         1 5RE       0.117000
     43 H181        -2.2680    -2.7220     2.6670 ha         1 5RE       0.134500
     44 H211        -3.7500    -2.1450    -1.3390 ha         1 5RE       0.134500
     45 H221        -1.5890    -1.1050    -2.0010 ha         1 5RE       0.117000
     46 H26          3.1900     0.0560     0.7480 hn         1 5RE       0.315500
     47 H271         4.6680     1.4970    -1.3060 h1         1 5RE       0.075700
     48 H281         6.0540     2.8500     0.2800 hc         1 5RE       0.045700
     49 H282         4.3610     3.3750     0.2520 hc         1 5RE       0.045700
     50 H283         4.9640     2.4070     1.6120 hc         1 5RE       0.045700
     51 H301         6.1140    -0.1460    -2.0810 ha         1 5RE       0.108500
     52 H311         7.7130    -2.0030    -1.6860 ha         1 5RE       0.111500
     53 H321         8.1540    -2.8070     0.6320 ha         1 5RE       0.112000
     54 H331         6.9840    -1.7450     2.5600 ha         1 5RE       0.111500
     55 H341         5.3820     0.1110     2.1790 ha         1 5RE       0.108500
     56 H011        -4.5000     1.4780     1.5250 ha         1 5RE       0.132000
@<TRIPOS>BOND
     1     1    12 1   
     2     1    13 1   
     3     1    21 1   
     4     1    32 1   
     5     2    10 1   
     6     2    11 2   
     7     2    12 1   
     8     3     4 ar  
     9     3     9 ar  
    10     3    56 1   
    11     4     5 1   
    12     4     6 ar  
    13     5    33 1   
    14     6     7 ar  
    15     6    34 1   
    16     7     8 ar  
    17     7    35 1   
    18     8     9 ar  
    19     8    36 1   
    20     9    10 1   
    21    10    37 1   
    22    10    38 1   
    23    12    39 1   
    24    13    14 1   
    25    13    40 1   
    26    13    41 1   
    27    14    15 ar  
    28    14    20 ar  
    29    15    16 ar  
    30    15    42 1   
    31    16    17 ar  
    32    16    43 1   
    33    17    18 1   
    34    17    19 ar  
    35    19    20 ar  
    36    19    44 1   
    37    20    45 1   
    38    21    22 2   
    39    21    23 1   
    40    23    24 1   
    41    23    46 1   
    42    24    25 1   
    43    24    26 1   
    44    24    47 1   
    45    25    48 1   
    46    25    49 1   
    47    25    50 1   
    48    26    27 ar  
    49    26    31 ar  
    50    27    28 ar  
    51    27    51 1   
    52    28    29 ar  
    53    28    52 1   
    54    29    30 ar  
    55    29    53 1   
    56    30    31 ar  
    57    30    54 1   
    58    31    55 1   
@<TRIPOS>SUBSTRUCTURE
     1 5RE         1 TEMP              0 ****  ****    0 ROOT
