@<TRIPOS>MOLECULE
5RE
   56    58     1     0     0
SMALL
bcc


@<TRIPOS>ATOM
      1 C14          0.7620     0.2140    -0.0640 c3         1 5RE       0.038700
      2 C10         -1.0220     1.7850    -0.6060 c          1 5RE       0.675100
      3 C01         -4.3720     2.5180    -0.3730 ca         1 5RE      -0.144000
      4 C02         -5.5330     2.1000     0.2780 ca         1 5RE       0.140100
      5 O03         -6.3810     3.0540     0.7120 oh         1 5RE      -0.494100
      6 C05         -5.7750     0.7420     0.4580 ca         1 5RE      -0.222000
      7 C06         -4.8560    -0.1830    -0.0180 ca         1 5RE      -0.086000
      8 C07         -3.7040     0.2270    -0.6700 ca         1 5RE      -0.164000
      9 C08         -3.4610     1.5880    -0.8520 ca         1 5RE      -0.043300
     10 C09         -2.1950     2.0480    -1.5310 c3         1 5RE      -0.110100
     11 O11         -0.8160     2.4630     0.3880 o          1 5RE      -0.597100
     12 N12         -0.2730     0.7150    -0.9240 ns         1 5RE      -0.557900
     13 C15          0.9690    -1.2870    -0.3180 c3         1 5RE      -0.041100
     14 C16         -0.3080    -2.0560    -0.1220 ca         1 5RE      -0.099300
     15 C17         -0.8730    -2.1840     1.1460 ca         1 5RE      -0.099500
     16 C18         -2.0830    -2.8330     1.3330 ca         1 5RE      -0.165000
     17 C19         -2.7270    -3.3600     0.2280 ca         1 5RE       0.133900
     18 F20         -3.9070    -3.9800     0.3990 f          1 5RE      -0.143900
     19 C21         -2.1970    -3.2650    -1.0420 ca         1 5RE      -0.165000
     20 C22         -0.9840    -2.6070    -1.2050 ca         1 5RE      -0.099500
     21 C23          2.0780     0.9540    -0.2940 c          1 5RE       0.655100
     22 O24          2.4290     1.3040    -1.4080 o          1 5RE      -0.588100
     23 N25          2.8210     1.1330     0.8080 ns         1 5RE      -0.569900
     24 C27          4.1580     1.6900     0.7700 c3         1 5RE       0.164000
     25 C28          4.5810     2.0600     2.1870 c3         1 5RE      -0.105100
     26 C29          5.1580     0.7440     0.1400 ca         1 5RE      -0.093300
     27 C30          6.1780     1.2510    -0.6580 ca         1 5RE      -0.115500
     28 C31          7.1440     0.4110    -1.1950 ca         1 5RE      -0.128000
     29 C32          7.0980    -0.9540    -0.9430 ca         1 5RE      -0.125000
     30 C33          6.0810    -1.4690    -0.1490 ca         1 5RE      -0.128000
     31 C34          5.1190    -0.6250     0.3890 ca         1 5RE      -0.115500
     32 H141         0.4410     0.3470     0.9730 h1         1 5RE       0.076700
     33 H04         -7.1420     2.6540     1.1470 ho         1 5RE       0.425000
     34 H051        -6.6740     0.4060     0.9620 ha         1 5RE       0.131000
     35 H061        -5.0470    -1.2390     0.1260 ha         1 5RE       0.133000
     36 H071        -2.9980    -0.5110    -1.0300 ha         1 5RE       0.132000
     37 H092        -2.2410     3.1160    -1.7400 hc         1 5RE       0.070700
     38 H091        -2.0680     1.5330    -2.4860 hc         1 5RE       0.070700
     39 H13         -0.4490     0.2370    -1.7930 hn         1 5RE       0.324500
     40 H151         1.3430    -1.4380    -1.3340 hc         1 5RE       0.065200
     41 H152         1.7440    -1.6500     0.3610 hc         1 5RE       0.065200
     42 H171        -0.3670    -1.7650     2.0090 ha         1 5RE       0.135000
     43 H181        -2.5180    -2.9270     2.3190 ha         1 5RE       0.152500
     44 H211        -2.7180    -3.6880    -1.8910 ha         1 5RE       0.152500
     45 H221        -0.5640    -2.5230    -2.2000 ha         1 5RE       0.135000
     46 H26          2.4510     0.8440     1.7000 hn         1 5RE       0.315500
     47 H271         4.1300     2.6030     0.1690 h1         1 5RE       0.075700
     48 H281         5.5810     2.4900     2.1810 hc         1 5RE       0.045700
     49 H282         3.8990     2.7940     2.6180 hc         1 5RE       0.045700
     50 H283         4.5970     1.1810     2.8340 hc         1 5RE       0.045700
     51 H301         6.2150     2.3140    -0.8660 ha         1 5RE       0.126500
     52 H311         7.9300     0.8230    -1.8160 ha         1 5RE       0.129500
     53 H321         7.8470    -1.6120    -1.3640 ha         1 5RE       0.130000
     54 H331         6.0350    -2.5310     0.0520 ha         1 5RE       0.129500
     55 H341         4.3300    -1.0440     1.0040 ha         1 5RE       0.126500
     56 H011        -4.1900     3.5780    -0.5070 ha         1 5RE       0.150000
@<TRIPOS>BOND
     1     1    12 1   
     2     1    13 1   
     3     1    21 1   
     4     1    32 1   
     5     2    10 1   
     6     2    11 2   
     7     2    12 1   
     8     3     4 ar  
     9     3     9 ar  
    10     3    56 1   
    11     4     5 1   
    12     4     6 ar  
    13     5    33 1   
    14     6     7 ar  
    15     6    34 1   
    16     7     8 ar  
    17     7    35 1   
    18     8     9 ar  
    19     8    36 1   
    20     9    10 1   
    21    10    37 1   
    22    10    38 1   
    23    12    39 1   
    24    13    14 1   
    25    13    40 1   
    26    13    41 1   
    27    14    15 ar  
    28    14    20 ar  
    29    15    16 ar  
    30    15    42 1   
    31    16    17 ar  
    32    16    43 1   
    33    17    18 1   
    34    17    19 ar  
    35    19    20 ar  
    36    19    44 1   
    37    20    45 1   
    38    21    22 2   
    39    21    23 1   
    40    23    24 1   
    41    23    46 1   
    42    24    25 1   
    43    24    26 1   
    44    24    47 1   
    45    25    48 1   
    46    25    49 1   
    47    25    50 1   
    48    26    27 ar  
    49    26    31 ar  
    50    27    28 ar  
    51    27    51 1   
    52    28    29 ar  
    53    28    52 1   
    54    29    30 ar  
    55    29    53 1   
    56    30    31 ar  
    57    30    54 1   
    58    31    55 1   
@<TRIPOS>SUBSTRUCTURE
     1 5RE         1 TEMP              0 ****  ****    0 ROOT
