@<TRIPOS>MOLECULE
5RF
   59    61     1     0     0
SMALL
No Charge or Current Charge


@<TRIPOS>ATOM
      1 C14         -0.7760     1.1860    -0.1310 c3         1 5RF       0.032700
      2 C10          1.4660     2.1380    -0.8400 c          1 5RF       0.603100
      3 C01          7.7120    -1.1870     0.7390 c3         1 5RF       0.148900
      4 O02          6.8400    -0.4180     1.5860 os         1 5RF      -0.342100
      5 C03          5.8510     0.3980     1.0760 ca         1 5RF       0.143100
      6 C04          5.0290     1.0800     1.9860 ca         1 5RF      -0.171000
      7 C05          3.9970     1.9170     1.5270 ca         1 5RF      -0.058500
      8 C06          5.6350     0.5580    -0.3100 ca         1 5RF      -0.171000
      9 C07          4.6040     1.3960    -0.7690 ca         1 5RF      -0.058500
     10 C08          3.7800     2.0800     0.1450 ca         1 5RF      -0.104300
     11 C09          2.6550     2.9790    -0.3620 c3         1 5RF      -0.104100
     12 O11          1.4410     1.5980    -1.9370 o          1 5RF      -0.584100
     13 N12          0.4290     2.0270     0.0610 ns         1 5RF      -0.502900
     14 C15         -0.5970    -0.2040     0.5400 c3         1 5RF      -0.050100
     15 C16          0.6700    -0.9430     0.1060 ca         1 5RF      -0.051300
     16 C17          0.7560    -1.6130    -1.1380 ca         1 5RF       0.004100
     17 Br1         -0.7220    -1.6550    -2.3650 br         1 5RF      -0.109100
     18 C19          1.9420    -2.2730    -1.5060 ca         1 5RF      -0.077000
     19 C20          3.0470    -2.2780    -0.6390 ca         1 5RF      -0.107000
     20 C21          2.9670    -1.6240     0.5990 ca         1 5RF      -0.103000
     21 C22          1.7870    -0.9570     0.9670 ca         1 5RF      -0.109000
     22 C23         -2.0470     1.9080     0.3990 c          1 5RF       0.592100
     23 O24         -2.0050     2.9100     1.1050 o          1 5RF      -0.611100
     24 N25         -3.2410     1.3350     0.0170 ns         1 5RF      -0.497900
     25 C27         -4.5640     1.8310     0.3840 c3         1 5RF       0.160000
     26 C28         -4.9600     3.0550    -0.4680 c3         1 5RF      -0.106100
     27 C29         -5.5850     0.6990     0.2870 ca         1 5RF      -0.101300
     28 C30         -5.9120     0.1220    -0.9590 ca         1 5RF      -0.099500
     29 C31         -6.8470    -0.9250    -1.0350 ca         1 5RF      -0.109500
     30 C32         -7.4620    -1.4060     0.1330 ca         1 5RF      -0.103000
     31 C33         -7.1390    -0.8400     1.3770 ca         1 5RF      -0.109500
     32 C34         -6.2040     0.2070     1.4550 ca         1 5RF      -0.099500
     33 H141        -0.9350     1.0420    -1.2070 h1         1 5RF       0.100700
     34 H012         8.4170    -1.7680     1.3460 h1         1 5RF       0.039700
     35 H013         7.1360    -1.8890     0.1220 h1         1 5RF       0.039700
     36 H011         8.2930    -0.5310     0.0780 h1         1 5RF       0.039700
     37 H051         3.3670     2.4340     2.2470 ha         1 5RF       0.112000
     38 H061         6.2500     0.0420    -1.0410 ha         1 5RF       0.120000
     39 H071         4.4420     1.5090    -1.8390 ha         1 5RF       0.112000
     40 H091         3.0220     3.5800    -1.2020 hc         1 5RF       0.062700
     41 H092         2.3330     3.6440     0.4480 hc         1 5RF       0.062700
     42 H13          0.5210     2.5400     0.9310 hn         1 5RF       0.326500
     43 H152        -0.5870    -0.0610     1.6280 hc         1 5RF       0.066200
     44 H151        -1.4790    -0.8250     0.3430 hc         1 5RF       0.066200
     45 H191         2.0040    -2.7840    -2.4640 ha         1 5RF       0.131000
     46 H201         3.9630    -2.7900    -0.9270 ha         1 5RF       0.119000
     47 H211         3.8200    -1.6300     1.2730 ha         1 5RF       0.118000
     48 H221         1.7440    -0.4450     1.9260 ha         1 5RF       0.113000
     49 H26         -3.1890     0.5030    -0.5580 hn         1 5RF       0.320500
     50 H271        -4.5190     2.1610     1.4320 h1         1 5RF       0.078700
     51 H282        -5.9640     3.4000    -0.1940 hc         1 5RF       0.045700
     52 H283        -4.2610     3.8830    -0.3050 hc         1 5RF       0.045700
     53 H281        -4.9580     2.8120    -1.5370 hc         1 5RF       0.045700
     54 H301        -5.4400     0.4800    -1.8710 ha         1 5RF       0.113500
     55 H311        -7.0930    -1.3640    -1.9990 ha         1 5RF       0.114500
     56 H321        -8.1850    -2.2170     0.0740 ha         1 5RF       0.114000
     57 H331        -7.6130    -1.2130     2.2830 ha         1 5RF       0.114500
     58 H341        -5.9620     0.6340     2.4250 ha         1 5RF       0.113500
     59 H041         5.1900     0.9570     3.0540 ha         1 5RF       0.120000
@<TRIPOS>BOND
     1     1    13 1   
     2     1    14 1   
     3     1    22 1   
     4     1    33 1   
     5     2    11 1   
     6     2    12 2   
     7     2    13 1   
     8     3     4 1   
     9     3    34 1   
    10     3    35 1   
    11     3    36 1   
    12     4     5 1   
    13     5     6 ar  
    14     5     8 ar  
    15     6     7 ar  
    16     6    59 1   
    17     7    10 ar  
    18     7    37 1   
    19     8     9 ar  
    20     8    38 1   
    21     9    10 ar  
    22     9    39 1   
    23    10    11 1   
    24    11    40 1   
    25    11    41 1   
    26    13    42 1   
    27    14    15 1   
    28    14    43 1   
    29    14    44 1   
    30    15    16 ar  
    31    15    21 ar  
    32    16    17 1   
    33    16    18 ar  
    34    18    19 ar  
    35    18    45 1   
    36    19    20 ar  
    37    19    46 1   
    38    20    21 ar  
    39    20    47 1   
    40    21    48 1   
    41    22    23 2   
    42    22    24 1   
    43    24    25 1   
    44    24    49 1   
    45    25    26 1   
    46    25    27 1   
    47    25    50 1   
    48    26    51 1   
    49    26    52 1   
    50    26    53 1   
    51    27    28 ar  
    52    27    32 ar  
    53    28    29 ar  
    54    28    54 1   
    55    29    30 ar  
    56    29    55 1   
    57    30    31 ar  
    58    30    56 1   
    59    31    32 ar  
    60    31    57 1   
    61    32    58 1   
@<TRIPOS>SUBSTRUCTURE
     1 5RF         1 TEMP              0 ****  ****    0 ROOT
