@<TRIPOS>MOLECULE
5RF
   59    61     1     0     0
SMALL
bcc


@<TRIPOS>ATOM
      1 C14         -0.8970     0.7850     0.5490 c3         1 5RF       0.032700
      2 C10          1.4260     1.2990    -0.0490 c          1 5RF       0.670100
      3 C01          8.4660     0.5510    -2.0290 c3         1 5RF       0.125700
      4 O02          7.5790    -0.1100    -1.1510 os         1 5RF      -0.318900
      5 C03          6.4080     0.4860    -0.8520 ca         1 5RF       0.143100
      6 C04          5.5800    -0.1920     0.0480 ca         1 5RF      -0.189000
      7 C05          4.3640     0.3470     0.4170 ca         1 5RF      -0.076500
      8 C06          5.9870     1.7060    -1.3700 ca         1 5RF      -0.189000
      9 C07          4.7560     2.2320    -0.9850 ca         1 5RF      -0.076500
     10 C08          3.9290     1.5730    -0.0910 ca         1 5RF      -0.104300
     11 C09          2.6180     2.1550     0.3450 c3         1 5RF      -0.104100
     12 O11          1.4700     0.4880    -0.9570 o          1 5RF      -0.584100
     13 N12          0.3170     1.5380     0.6800 ns         1 5RF      -0.569900
     14 C15         -1.0630    -0.2060     1.7220 c3         1 5RF      -0.050100
     15 C16          0.1120    -1.1310     1.8420 ca         1 5RF      -0.051300
     16 C17          0.2890    -2.2670     1.0550 ca         1 5RF       0.004100
     17 BR1         -1.0200    -2.7600    -0.2250 br         1 5RF      -0.109100
     18 C19          1.4060    -3.0810     1.1750 ca         1 5RF      -0.095000
     19 C20          2.3880    -2.7610     2.1010 ca         1 5RF      -0.125000
     20 C21          2.2420    -1.6370     2.9000 ca         1 5RF      -0.121000
     21 C22          1.1180    -0.8380     2.7630 ca         1 5RF      -0.127000
     22 C23         -2.0970     1.7270     0.5300 c          1 5RF       0.659100
     23 O24         -2.0860     2.7860     1.1390 o          1 5RF      -0.611100
     24 N25         -3.1570     1.2600    -0.1430 ns         1 5RF      -0.564900
     25 C27         -4.4270     1.9660    -0.2330 c3         1 5RF       0.160000
     26 C28         -4.4440     2.9370    -1.4110 c3         1 5RF      -0.106100
     27 C29         -5.5560     0.9650    -0.2930 ca         1 5RF      -0.101300
     28 C30         -5.6790     0.0860    -1.3680 ca         1 5RF      -0.117500
     29 C31         -6.7160    -0.8340    -1.4150 ca         1 5RF      -0.127500
     30 C32         -7.6520    -0.8840    -0.3890 ca         1 5RF      -0.121000
     31 C33         -7.5400    -0.0110     0.6830 ca         1 5RF      -0.127500
     32 C34         -6.4960     0.9040     0.7310 ca         1 5RF      -0.117500
     33 H141        -0.8440     0.2340    -0.3900 h1         1 5RF       0.100700
     34 H012         9.3450    -0.0820    -2.1170 h1         1 5RF       0.039700
     35 H013         8.0330     0.6890    -3.0240 h1         1 5RF       0.039700
     36 H011         8.7730     1.5260    -1.6420 h1         1 5RF       0.039700
     37 H051         3.7400    -0.1970     1.1150 ha         1 5RF       0.130000
     38 H061         6.5950     2.2640    -2.0690 ha         1 5RF       0.138000
     39 H071         4.4500     3.1850    -1.4000 ha         1 5RF       0.130000
     40 H091         2.4760     3.1450    -0.0990 hc         1 5RF       0.062700
     41 H092         2.6110     2.3130     1.4280 hc         1 5RF       0.062700
     42 H13          0.3600     2.2190     1.4230 hn         1 5RF       0.326500
     43 H152        -1.1570     0.3680     2.6470 hc         1 5RF       0.066200
     44 H151        -1.9970    -0.7580     1.6090 hc         1 5RF       0.066200
     45 H191         1.5170    -3.9600     0.5550 ha         1 5RF       0.149000
     46 H201         3.2590    -3.3960     2.1950 ha         1 5RF       0.137000
     47 H211         3.0010    -1.3810     3.6270 ha         1 5RF       0.136000
     48 H221         1.0080     0.0360     3.3930 ha         1 5RF       0.131000
     49 H26         -3.0480     0.4190    -0.6890 hn         1 5RF       0.320500
     50 H271        -4.5310     2.5440     0.6860 h1         1 5RF       0.078700
     51 H282        -5.3850     3.4860    -1.4350 hc         1 5RF       0.045700
     52 H283        -3.6320     3.6580    -1.3190 hc         1 5RF       0.045700
     53 H281        -4.3310     2.4160    -2.3620 hc         1 5RF       0.045700
     54 H301        -4.9660     0.1120    -2.1840 ha         1 5RF       0.131500
     55 H311        -6.7960    -1.5100    -2.2560 ha         1 5RF       0.132500
     56 H321        -8.4640    -1.5980    -0.4280 ha         1 5RF       0.132000
     57 H331        -8.2640    -0.0420     1.4880 ha         1 5RF       0.132500
     58 H341        -6.4140     1.5810     1.5730 ha         1 5RF       0.131500
     59 H041         5.9000    -1.1440     0.4540 ha         1 5RF       0.138000
@<TRIPOS>BOND
     1     1    13 1   
     2     1    14 1   
     3     1    22 1   
     4     1    33 1   
     5     2    11 1   
     6     2    12 2   
     7     2    13 1   
     8     3     4 1   
     9     3    34 1   
    10     3    35 1   
    11     3    36 1   
    12     4     5 1   
    13     5     6 ar  
    14     5     8 ar  
    15     6     7 ar  
    16     6    59 1   
    17     7    10 ar  
    18     7    37 1   
    19     8     9 ar  
    20     8    38 1   
    21     9    10 ar  
    22     9    39 1   
    23    10    11 1   
    24    11    40 1   
    25    11    41 1   
    26    13    42 1   
    27    14    15 1   
    28    14    43 1   
    29    14    44 1   
    30    15    16 ar  
    31    15    21 ar  
    32    16    17 1   
    33    16    18 ar  
    34    18    19 ar  
    35    18    45 1   
    36    19    20 ar  
    37    19    46 1   
    38    20    21 ar  
    39    20    47 1   
    40    21    48 1   
    41    22    23 2   
    42    22    24 1   
    43    24    25 1   
    44    24    49 1   
    45    25    26 1   
    46    25    27 1   
    47    25    50 1   
    48    26    51 1   
    49    26    52 1   
    50    26    53 1   
    51    27    28 ar  
    52    27    32 ar  
    53    28    29 ar  
    54    28    54 1   
    55    29    30 ar  
    56    29    55 1   
    57    30    31 ar  
    58    30    56 1   
    59    31    32 ar  
    60    31    57 1   
    61    32    58 1   
@<TRIPOS>SUBSTRUCTURE
     1 5RF         1 TEMP              0 ****  ****    0 ROOT
