@<TRIPOS>MOLECULE
5RG
   16    16     1     0     0
SMALL
No Charge or Current Charge


@<TRIPOS>ATOM
      1 NAA          1.3290     2.1300     0.1400 nv         1 5RG      -1.095000
      2 OAB          1.9580    -1.8460     0.5730 o          1 5RG      -0.724000
      3 OAC          2.7660    -0.2010    -0.5490 o          1 5RG      -0.724000
      4 FAD         -3.0430    -1.2310    -0.1830 f          1 5RG      -0.216000
      5 CAE         -1.0200     1.8090     0.0280 ca         1 5RG      -0.211000
      6 CAF         -2.1440     0.9700    -0.0530 ca         1 5RG      -0.129000
      7 CAG         -0.6760    -0.9710    -0.0830 ca         1 5RG      -0.082000
      8 CAH          1.8380    -0.7620     0.0200 c          1 5RG       0.721600
      9 CAI          0.2760     1.2660     0.0520 ca         1 5RG       0.315000
     10 CAJ         -1.9660    -0.4190    -0.1070 ca         1 5RG       0.069000
     11 CAK          0.4650    -0.1340    -0.0070 ca         1 5RG      -0.184600
     12 HNAA         1.1750     3.1110    -0.0850 hn         1 5RG       0.467000
     13 HNAB         2.2440     1.7440    -0.1030 hn         1 5RG       0.467000
     14 HAE         -1.1630     2.8860     0.0740 ha         1 5RG       0.086000
     15 HAF         -3.1450     1.3930    -0.0710 ha         1 5RG       0.097000
     16 HAG         -0.5620    -2.0510    -0.1280 ha         1 5RG       0.143000
@<TRIPOS>BOND
     1     1     9 1   
     2     1    12 1   
     3     1    13 1   
     4     2     8 1   
     5     3     8 1   
     6     4    10 1   
     7     5     6 ar  
     8     5     9 ar  
     9     5    14 1   
    10     6    10 ar  
    11     6    15 1   
    12     7    10 ar  
    13     7    11 ar  
    14     7    16 1   
    15     8    11 1   
    16     9    11 ar  
@<TRIPOS>SUBSTRUCTURE
     1 5RG         1 TEMP              0 ****  ****    0 ROOT
