@<TRIPOS>MOLECULE
5RG
   16    16     1     0     0
SMALL
abcg2


@<TRIPOS>ATOM
      1 NAA          1.3310     2.1570     0.1510 nv         1 5RG      -1.095000
      2 OAB          1.8430    -2.0270     0.1180 o          1 5RG      -0.724000
      3 OAC          2.8290    -0.0550    -0.1430 o          1 5RG      -0.724000
      4 FAD         -3.0070    -1.2290    -0.1070 f          1 5RG      -0.216000
      5 CAE         -1.0320     1.7920    -0.0070 ca         1 5RG      -0.211000
      6 CAF         -2.1360     0.9630    -0.0590 ca         1 5RG      -0.129000
      7 CAG         -0.6700    -0.9400    -0.0230 ca         1 5RG      -0.082000
      8 CAH          1.8230    -0.7890     0.0020 c          1 5RG       0.721600
      9 CAI          0.2780     1.2840     0.0360 ca         1 5RG       0.315000
     10 CAJ         -1.9350    -0.4040    -0.0610 ca         1 5RG       0.069000
     11 CAK          0.4570    -0.1180     0.0170 ca         1 5RG      -0.184600
     12 HNAA         1.1770     3.0870    -0.2030 hn         1 5RG       0.467000
     13 HNAB         2.2230     1.7400    -0.0810 hn         1 5RG       0.467000
     14 HAE         -1.1780     2.8660     0.0050 ha         1 5RG       0.086000
     15 HAF         -3.1360     1.3790    -0.0950 ha         1 5RG       0.097000
     16 HAG         -0.5340    -2.0130    -0.0310 ha         1 5RG       0.143000
@<TRIPOS>BOND
     1     1     9 1   
     2     1    12 1   
     3     1    13 1   
     4     2     8 1   
     5     3     8 1   
     6     4    10 1   
     7     5     6 ar  
     8     5     9 ar  
     9     5    14 1   
    10     6    10 ar  
    11     6    15 1   
    12     7    10 ar  
    13     7    11 ar  
    14     7    16 1   
    15     8    11 1   
    16     9    11 ar  
@<TRIPOS>SUBSTRUCTURE
     1 5RG         1 TEMP              0 ****  ****    0 ROOT
