@<TRIPOS>MOLECULE
5RH
   72    75     1     0     0
SMALL
abcg2


@<TRIPOS>ATOM
      1 C4         -39.3300     6.7970    13.4580 c3         1 5RH      -0.085100
      2 C14        -37.4220    10.7970    16.9430 ca         1 5RH      -0.098000
      3 C5         -38.8570     9.2990    13.3270 c5         1 5RH      -0.088700
      4 C11        -39.8960     9.8960    17.8170 ca         1 5RH      -0.101500
      5 C7         -37.4070     9.3180    13.8750 c5         1 5RH       0.128700
      6 C8         -37.2010     8.8690    15.3330 c3         1 5RH      -0.039100
      7 C9         -37.9560     9.6340    16.3860 ca         1 5RH      -0.081300
      8 C10        -39.1990     9.1900    16.8430 ca         1 5RH      -0.098000
      9 C12        -39.3570    11.0610    18.3560 ca         1 5RH      -0.101000
     10 C13        -38.1150    11.5080    17.9160 ca         1 5RH      -0.101500
     11 C3         -39.2200     8.0240    12.5560 c6         1 5RH      -0.016500
     12 C17        -40.5510    12.0250    13.5830 c          1 5RH       0.600300
     13 O2         -40.2390    11.2340    12.5380 os         1 5RH      -0.446100
     14 C18        -41.6470    12.9560    13.2670 ce         1 5RH      -0.263200
     15 C19        -42.0870    13.1420    12.0230 c2         1 5RH      -0.173200
     16 C20        -43.0640    14.1880    11.5960 c3         1 5RH       0.195500
     17 O4         -44.0700    13.6080    10.7480 oh         1 5RH      -0.660000
     18 C21        -42.3670    15.3200    10.8220 c3         1 5RH      -0.064400
     19 C22        -41.2380    14.9270     9.8600 c3         1 5RH      -0.072400
     20 C15        -37.8230    11.4660    12.9410 c          1 5RH       0.556000
     21 O1         -37.6890    12.6580    12.6940 o          1 5RH      -0.541000
     22 C2         -38.2970     7.8460    11.3620 c2         1 5RH      -0.149400
     23 N          -36.9930    10.6980    13.6570 ns         1 5RH      -0.500900
     24 C16        -38.9720    10.5640    12.4450 c5         1 5RH       0.117000
     25 C1         -37.9170     6.6600    10.8990 c2         1 5RH      -0.308000
     26 C30        -37.8370     9.1410    10.6970 c6         1 5RH       0.213500
     27 O5         -37.6280     9.0030     9.2950 oh         1 5RH      -0.646000
     28 C29        -38.8790    10.2490    10.9240 c6         1 5RH      -0.000500
     29 C28        -38.6610    11.4700    10.0830 c2         1 5RH      -0.210200
     30 C27        -39.4960    11.8740     9.1320 c2         1 5RH      -0.189200
     31 C26        -39.2830    13.0850     8.2650 c3         1 5RH      -0.041200
     32 C24        -40.5640    13.7010     7.6750 c3         1 5RH      -0.057700
     33 C25        -40.2110    14.9310     6.8360 c3         1 5RH      -0.088100
     34 C23        -41.6550    14.0000     8.7170 c3         1 5RH      -0.066400
     35 H11        -39.9700     7.0170    14.3130 hc         1 5RH       0.038700
     36 H9         -39.7690     5.9560    12.9220 hc         1 5RH       0.038700
     37 H10        -38.3550     6.4830    13.8310 hc         1 5RH       0.038700
     38 H12        -39.5450     9.4240    14.1600 hc         1 5RH       0.092700
     39 H18        -40.8590     9.5350    18.1590 ha         1 5RH       0.110500
     40 H2         -36.7820     8.6560    13.2700 h1         1 5RH       0.050700
     41 H16        -37.4590     7.8120    15.3870 hc         1 5RH       0.052200
     42 H15        -36.1290     8.9400    15.5340 hc         1 5RH       0.052200
     43 H17        -39.6220     8.2790    16.4380 ha         1 5RH       0.103000
     44 H19        -39.8970    11.6110    19.1160 ha         1 5RH       0.111000
     45 H20        -37.6830    12.4080    18.3350 ha         1 5RH       0.110500
     46 H1         -40.2230     8.2070    12.1490 hc         1 5RH       0.068700
     47 H23        -42.0060    13.5470    14.1000 ha         1 5RH       0.201000
     48 H24        -41.6860    12.5240    11.2290 ha         1 5RH       0.206000
     49 H3         -43.5460    14.6240    12.4760 h1         1 5RH       0.035700
     50 H25        -44.5380    12.9330    11.2570 ho         1 5RH       0.441000
     51 H26        -41.9580    16.0080    11.5660 hc         1 5RH       0.051200
     52 H27        -43.1500    15.8640    10.2840 hc         1 5RH       0.051200
     53 H29        -40.4270    14.4640    10.4300 hc         1 5RH       0.045200
     54 H28        -40.8270    15.8520     9.4490 hc         1 5RH       0.045200
     55 H22        -36.1290    11.0680    14.0240 hn         1 5RH       0.329500
     56 H8         -38.2230     5.7360    11.3710 ha         1 5RH       0.166000
     57 H7         -37.2920     6.5620    10.0200 ha         1 5RH       0.166000
     58 H6         -36.8920     9.4550    11.1550 h1         1 5RH       0.040700
     59 H39        -36.8190     8.4960     9.1550 ho         1 5RH       0.442000
     60 H5         -39.8560     9.8380    10.6590 hc         1 5RH       0.075700
     61 H38        -37.7610    12.0450    10.2780 ha         1 5RH       0.182000
     62 H37        -40.3900    11.2850     8.9360 ha         1 5RH       0.166000
     63 H36        -38.6390    12.8110     7.4210 hc         1 5RH       0.047700
     64 H35        -38.7300    13.8410     8.8290 hc         1 5RH       0.047700
     65 H4         -40.9910    12.9530     6.9960 hc         1 5RH       0.042700
     66 H32        -41.1030    15.3570     6.3700 hc         1 5RH       0.032367
     67 H34        -39.7480    15.7090     7.4470 hc         1 5RH       0.032367
     68 H33        -39.5060    14.6720     6.0430 hc         1 5RH       0.032367
     69 H31        -42.5120    14.4410     8.1970 hc         1 5RH       0.043700
     70 H30        -42.0140    13.0560     9.1290 hc         1 5RH       0.043700
     71 H21        -36.4500    11.1460    16.6140 ha         1 5RH       0.103000
     72 O3         -39.9750    11.9940    14.6490 o          1 5RH      -0.464000
@<TRIPOS>BOND
     1     1    11 1   
     2     1    35 1   
     3     1    36 1   
     4     1    37 1   
     5     2     7 ar  
     6     2    10 ar  
     7     2    71 1   
     8     3     5 1   
     9     3    11 1   
    10     3    24 1   
    11     3    38 1   
    12     4     8 ar  
    13     4     9 ar  
    14     4    39 1   
    15     5     6 1   
    16     5    23 1   
    17     5    40 1   
    18     6     7 1   
    19     6    41 1   
    20     6    42 1   
    21     7     8 ar  
    22     8    43 1   
    23     9    10 ar  
    24     9    44 1   
    25    10    45 1   
    26    11    22 1   
    27    11    46 1   
    28    12    13 1   
    29    12    14 1   
    30    12    72 2   
    31    13    24 1   
    32    14    15 2   
    33    14    47 1   
    34    15    16 1   
    35    15    48 1   
    36    16    17 1   
    37    16    18 1   
    38    16    49 1   
    39    17    50 1   
    40    18    19 1   
    41    18    51 1   
    42    18    52 1   
    43    19    34 1   
    44    19    53 1   
    45    19    54 1   
    46    20    21 2   
    47    20    23 1   
    48    20    24 1   
    49    22    25 2   
    50    22    26 1   
    51    23    55 1   
    52    24    28 1   
    53    25    56 1   
    54    25    57 1   
    55    26    27 1   
    56    26    28 1   
    57    26    58 1   
    58    27    59 1   
    59    28    29 1   
    60    28    60 1   
    61    29    30 2   
    62    29    61 1   
    63    30    31 1   
    64    30    62 1   
    65    31    32 1   
    66    31    63 1   
    67    31    64 1   
    68    32    33 1   
    69    32    34 1   
    70    32    65 1   
    71    33    66 1   
    72    33    67 1   
    73    33    68 1   
    74    34    69 1   
    75    34    70 1   
@<TRIPOS>SUBSTRUCTURE
     1 5RH         1 TEMP              0 ****  ****    0 ROOT
