@<TRIPOS>MOLECULE
5RH
   72    75     1     0     0
SMALL
No Charge or Current Charge


@<TRIPOS>ATOM
      1 C4         -39.2370     6.7070    13.4580 c3         1 5RH      -0.085100
      2 C14        -37.5240    10.8900    16.9170 ca         1 5RH      -0.098000
      3 C5         -38.8220     9.2690    13.2650 c5         1 5RH      -0.088700
      4 C11        -40.0450     9.9980    17.7780 ca         1 5RH      -0.101500
      5 C7         -37.3750     9.3260    13.9000 c5         1 5RH       0.128700
      6 C8         -37.2600     8.8720    15.3820 c3         1 5RH      -0.039100
      7 C9         -38.0550     9.6940    16.3940 ca         1 5RH      -0.081300
      8 C10        -39.3170     9.2490    16.8370 ca         1 5RH      -0.098000
      9 C12        -39.5130    11.1940    18.2880 ca         1 5RH      -0.101000
     10 C13        -38.2510    11.6390    17.8590 ca         1 5RH      -0.101500
     11 C3         -39.1250     7.9360    12.5090 c6         1 5RH      -0.016500
     12 C17        -40.4320    11.9630    13.5600 c          1 5RH       0.600300
     13 O2         -40.1710    11.1970    12.4460 os         1 5RH      -0.446100
     14 C18        -41.5040    12.9590    13.2730 ce         1 5RH      -0.263200
     15 C19        -42.1250    13.0850    12.0730 c2         1 5RH      -0.173200
     16 C20        -43.1190    14.1480    11.6710 c3         1 5RH       0.195500
     17 O4         -44.1270    13.5550    10.8530 oh         1 5RH      -0.660000
     18 C21        -42.4500    15.3390    10.9240 c3         1 5RH      -0.064400
     19 C22        -41.2960    15.0040     9.9330 c3         1 5RH      -0.072400
     20 C15        -37.6920    11.4320    12.8020 c          1 5RH       0.556000
     21 O1         -37.4690    12.6130    12.5750 o          1 5RH      -0.541000
     22 C2         -38.1070     7.7330    11.3570 c2         1 5RH      -0.149400
     23 N          -36.9560    10.7070    13.6950 ns         1 5RH      -0.500900
     24 C16        -38.8690    10.5280    12.3220 c5         1 5RH       0.117000
     25 C1         -37.5270     6.5490    11.0680 c2         1 5RH      -0.308000
     26 C30        -37.7430     9.0060    10.5640 c6         1 5RH       0.213500
     27 O5         -37.6830     8.6850     9.1700 oh         1 5RH      -0.646000
     28 C29        -38.7640    10.1560    10.8010 c6         1 5RH      -0.000500
     29 C28        -38.5210    11.3860     9.9180 c2         1 5RH      -0.210200
     30 C27        -39.4550    11.9300     9.1180 c2         1 5RH      -0.189200
     31 C26        -39.2560    13.1940     8.2990 c3         1 5RH      -0.041200
     32 C24        -40.5530    13.8150     7.7000 c3         1 5RH      -0.057700
     33 C25        -40.2210    15.0680     6.8540 c3         1 5RH      -0.088100
     34 C23        -41.6860    14.0970     8.7350 c3         1 5RH      -0.066400
     35 H11        -39.8900     6.9220    14.3110 hc         1 5RH       0.038700
     36 H9         -39.6680     5.8450    12.9360 hc         1 5RH       0.038700
     37 H10        -38.2600     6.4020    13.8500 hc         1 5RH       0.038700
     38 H12        -39.5870     9.3490    14.0430 hc         1 5RH       0.092700
     39 H18        -41.0200     9.6500    18.1120 ha         1 5RH       0.110500
     40 H2         -36.6990     8.6740    13.3320 h1         1 5RH       0.050700
     41 H16        -37.5440     7.8190    15.4700 hc         1 5RH       0.052200
     42 H15        -36.2010     8.8950    15.6670 hc         1 5RH       0.052200
     43 H17        -39.7370     8.3230    16.4510 ha         1 5RH       0.103000
     44 H19        -40.0760    11.7740    19.0160 ha         1 5RH       0.111000
     45 H20        -37.8360    12.5630    18.2550 ha         1 5RH       0.110500
     46 H1         -40.1260     8.0330    12.0650 hc         1 5RH       0.068700
     47 H23        -41.7270    13.6380    14.0940 ha         1 5RH       0.201000
     48 H24        -41.8820    12.4070    11.2550 ha         1 5RH       0.206000
     49 H3         -43.5910    14.5510    12.5780 h1         1 5RH       0.035700
     50 H25        -44.5730    12.8770    11.4060 ho         1 5RH       0.441000
     51 H26        -42.0370    16.0110    11.6860 hc         1 5RH       0.051200
     52 H27        -43.2220    15.9190    10.4030 hc         1 5RH       0.051200
     53 H29        -40.4730    14.5410    10.4900 hc         1 5RH       0.045200
     54 H28        -40.9030    15.9520     9.5460 hc         1 5RH       0.045200
     55 H22        -36.1750    11.1590    14.1540 hn         1 5RH       0.329500
     56 H8         -37.7450     5.6270    11.6060 ha         1 5RH       0.166000
     57 H7         -36.7930     6.4550    10.2670 ha         1 5RH       0.166000
     58 H6         -36.7540     9.3530    10.8980 h1         1 5RH       0.040700
     59 H39        -38.4190     8.0580     9.0120 ho         1 5RH       0.442000
     60 H5         -39.7440     9.7530    10.5070 hc         1 5RH       0.075700
     61 H38        -37.5290    11.8370     9.9820 ha         1 5RH       0.182000
     62 H37        -40.4460    11.4790     9.0430 ha         1 5RH       0.166000
     63 H36        -38.5740    12.9660     7.4700 hc         1 5RH       0.047700
     64 H35        -38.7400    13.9470     8.9070 hc         1 5RH       0.047700
     65 H4         -40.9600    13.0740     7.0000 hc         1 5RH       0.042700
     66 H32        -41.1280    15.4820     6.3980 hc         1 5RH       0.032367
     67 H34        -39.7560    15.8490     7.4660 hc         1 5RH       0.032367
     68 H33        -39.5250    14.8130     6.0450 hc         1 5RH       0.032367
     69 H31        -42.5330    14.5560     8.2110 hc         1 5RH       0.043700
     70 H30        -42.0600    13.1390     9.1080 hc         1 5RH       0.043700
     71 H21        -36.5470    11.2410    16.5940 ha         1 5RH       0.103000
     72 O3         -39.8610    11.8890    14.6350 o          1 5RH      -0.464000
@<TRIPOS>BOND
     1     1    11 1   
     2     1    35 1   
     3     1    36 1   
     4     1    37 1   
     5     2     7 ar  
     6     2    10 ar  
     7     2    71 1   
     8     3     5 1   
     9     3    11 1   
    10     3    24 1   
    11     3    38 1   
    12     4     8 ar  
    13     4     9 ar  
    14     4    39 1   
    15     5     6 1   
    16     5    23 1   
    17     5    40 1   
    18     6     7 1   
    19     6    41 1   
    20     6    42 1   
    21     7     8 ar  
    22     8    43 1   
    23     9    10 ar  
    24     9    44 1   
    25    10    45 1   
    26    11    22 1   
    27    11    46 1   
    28    12    13 1   
    29    12    14 1   
    30    12    72 2   
    31    13    24 1   
    32    14    15 2   
    33    14    47 1   
    34    15    16 1   
    35    15    48 1   
    36    16    17 1   
    37    16    18 1   
    38    16    49 1   
    39    17    50 1   
    40    18    19 1   
    41    18    51 1   
    42    18    52 1   
    43    19    34 1   
    44    19    53 1   
    45    19    54 1   
    46    20    21 2   
    47    20    23 1   
    48    20    24 1   
    49    22    25 2   
    50    22    26 1   
    51    23    55 1   
    52    24    28 1   
    53    25    56 1   
    54    25    57 1   
    55    26    27 1   
    56    26    28 1   
    57    26    58 1   
    58    27    59 1   
    59    28    29 1   
    60    28    60 1   
    61    29    30 2   
    62    29    61 1   
    63    30    31 1   
    64    30    62 1   
    65    31    32 1   
    66    31    63 1   
    67    31    64 1   
    68    32    33 1   
    69    32    34 1   
    70    32    65 1   
    71    33    66 1   
    72    33    67 1   
    73    33    68 1   
    74    34    69 1   
    75    34    70 1   
@<TRIPOS>SUBSTRUCTURE
     1 5RH         1 TEMP              0 ****  ****    0 ROOT
