@<TRIPOS>MOLECULE
5RI
   52    54     1     0     0
SMALL
abcg2


@<TRIPOS>ATOM
      1 CAB          4.5950    -3.1200     1.1420 c3         1 5RI       0.145900
      2 OAS          5.3090    -1.9290     0.8760 os         1 5RI      -0.323600
      3 CBA          4.6280    -0.8490     0.4570 ca         1 5RI       0.183100
      4 CAK          3.2480    -0.8430     0.2560 ca         1 5RI      -0.270000
      5 CBD          5.3940     0.2950     0.2370 ca         1 5RI      -0.000900
      6 OAU          6.7340     0.2830     0.4720 os         1 5RI      -0.324100
      7 CAD          7.5220    -0.0600    -0.6590 c3         1 5RI       0.146900
      8 CBB          4.7630     1.4580    -0.2130 ca         1 5RI       0.183100
      9 OAT          5.5670     2.5160    -0.4100 os         1 5RI      -0.323600
     10 CAC          4.9970     3.7260    -0.8670 c3         1 5RI       0.145900
     11 CAL          3.3890     1.4760    -0.4210 ca         1 5RI      -0.270000
     12 CAW          2.6340     0.3260    -0.1840 ca         1 5RI       0.382000
     13 NAQ          1.2640     0.4450    -0.4240 nu         1 5RI      -0.919900
     14 CAX          0.2360    -0.4090    -0.2280 ca         1 5RI       0.434900
     15 NAO         -0.9600     0.0680    -0.5660 nb         1 5RI      -0.339000
     16 NAM          0.4530    -1.6290     0.2730 nb         1 5RI      -0.298000
     17 CAH         -0.6420    -2.3510     0.4260 ca         1 5RI       0.203900
     18 NAN         -1.8760    -1.9930     0.1350 nb         1 5RI      -0.299000
     19 CAY         -1.9820    -0.7580    -0.3690 ca         1 5RI       0.437900
     20 NAR         -3.1930    -0.2610    -0.7000 nu         1 5RI      -0.931900
     21 CAZ         -4.4530    -0.8480    -0.5910 ca         1 5RI       0.360000
     22 CAI         -4.6540    -2.2180    -0.7660 ca         1 5RI      -0.127000
     23 CAF         -5.9260    -2.7590    -0.6890 ca         1 5RI      -0.069000
     24 CAG         -7.0270    -1.9510    -0.4490 ca         1 5RI      -0.139000
     25 CAJ         -6.8370    -0.5910    -0.2750 ca         1 5RI      -0.070000
     26 CBC         -5.5650    -0.0240    -0.3310 ca         1 5RI      -0.199600
     27 CAV         -5.4090     1.4540    -0.1650 c          1 5RI       0.614700
     28 OAE         -4.5870     2.0970    -0.8180 o          1 5RI      -0.626100
     29 NAP         -6.2170     2.0350     0.7250 ns         1 5RI      -0.492900
     30 CAA         -6.2050     3.4600     0.9600 c3         1 5RI       0.093300
     31 HAB1         3.8520    -2.9830     1.9310 h1         1 5RI       0.042533
     32 HAB2         4.0950    -3.5060     0.2500 h1         1 5RI       0.042533
     33 HAB3         5.3290    -3.8500     1.4750 h1         1 5RI       0.042533
     34 HAK          2.6510    -1.7210     0.4360 ha         1 5RI       0.140500
     35 HAD1         7.2630    -1.0480    -1.0490 h1         1 5RI       0.032033
     36 HAD2         7.4180     0.6720    -1.4630 h1         1 5RI       0.032033
     37 HAD3         8.5610    -0.0750    -0.3350 h1         1 5RI       0.032033
     38 HAL          2.8930     2.3740    -0.7640 ha         1 5RI       0.140500
     39 HAC1         5.8160     4.4330    -0.9670 h1         1 5RI       0.042533
     40 HAC2         4.5130     3.6090    -1.8400 h1         1 5RI       0.042533
     41 HAC3         4.2700     4.1300    -0.1570 h1         1 5RI       0.042533
     42 HAH         -0.5100    -3.3450     0.8390 h5         1 5RI       0.048100
     43 HAQ          0.9680     1.3390    -0.7890 hn         1 5RI       0.513000
     44 HAR         -3.2010     0.7200    -0.9550 hn         1 5RI       0.550000
     45 HAI         -3.8140    -2.8620    -0.9710 ha         1 5RI       0.145000
     46 HAF         -6.0540    -3.8240    -0.8360 ha         1 5RI       0.118000
     47 HAG         -8.0230    -2.3710    -0.4070 ha         1 5RI       0.120000
     48 HAJ         -7.6990     0.0430    -0.1120 ha         1 5RI       0.113000
     49 HAP         -6.7910     1.4610     1.3190 hn         1 5RI       0.321500
     50 HAA1        -5.2360     3.8010     1.3260 h1         1 5RI       0.043033
     51 HAA2        -6.4450     4.0140     0.0530 h1         1 5RI       0.043033
     52 HAA3        -6.9560     3.6880     1.7100 h1         1 5RI       0.043033
@<TRIPOS>BOND
     1     1     2 1   
     2     1    31 1   
     3     1    32 1   
     4     1    33 1   
     5     2     3 1   
     6     3     4 ar  
     7     3     5 ar  
     8     4    12 ar  
     9     4    34 1   
    10     5     6 1   
    11     5     8 ar  
    12     6     7 1   
    13     7    35 1   
    14     7    36 1   
    15     7    37 1   
    16     8     9 1   
    17     8    11 ar  
    18     9    10 1   
    19    10    39 1   
    20    10    40 1   
    21    10    41 1   
    22    11    12 ar  
    23    11    38 1   
    24    12    13 1   
    25    13    14 1   
    26    13    43 1   
    27    14    15 ar  
    28    14    16 ar  
    29    15    19 ar  
    30    16    17 ar  
    31    17    18 ar  
    32    17    42 1   
    33    18    19 ar  
    34    19    20 1   
    35    20    21 1   
    36    20    44 1   
    37    21    22 ar  
    38    21    26 ar  
    39    22    23 ar  
    40    22    45 1   
    41    23    24 ar  
    42    23    46 1   
    43    24    25 ar  
    44    24    47 1   
    45    25    26 ar  
    46    25    48 1   
    47    26    27 1   
    48    27    28 2   
    49    27    29 1   
    50    29    30 1   
    51    29    49 1   
    52    30    50 1   
    53    30    51 1   
    54    30    52 1   
@<TRIPOS>SUBSTRUCTURE
     1 5RI         1 TEMP              0 ****  ****    0 ROOT
