@<TRIPOS>MOLECULE
5RI
   52    54     1     0     0
SMALL
No Charge or Current Charge


@<TRIPOS>ATOM
      1 CAB          4.8060    -3.2950    -0.4720 c3         1 5RI       0.145900
      2 OAS          5.4710    -2.0220    -0.3730 os         1 5RI      -0.323600
      3 CBA          4.7950    -0.8150    -0.3030 ca         1 5RI       0.183100
      4 CAK          3.3850    -0.7900    -0.3530 ca         1 5RI      -0.270000
      5 CBD          5.5120     0.4150    -0.1880 ca         1 5RI      -0.000900
      6 OAU          6.9040     0.5230    -0.1270 os         1 5RI      -0.324100
      7 CAD          7.8230    -0.5830    -0.1530 c3         1 5RI       0.146900
      8 CBB          4.7850     1.6280    -0.1350 ca         1 5RI       0.183100
      9 OAT          5.4950     2.8140    -0.0310 os         1 5RI      -0.323600
     10 CAC          4.8570     4.1010     0.0310 c3         1 5RI       0.145900
     11 CAL          3.3780     1.6200    -0.1870 ca         1 5RI      -0.270000
     12 CAW          2.6830     0.4160    -0.2800 ca         1 5RI       0.382000
     13 NAQ          1.2950     0.4650    -0.3390 nu         1 5RI      -0.919900
     14 CAX          0.2750    -0.3900     0.0380 ca         1 5RI       0.434900
     15 NAO         -0.9540     0.0020    -0.3260 nb         1 5RI      -0.339000
     16 NAM          0.5670    -1.5000     0.7380 nb         1 5RI      -0.298000
     17 CAH         -0.5010    -2.2530     1.0680 ca         1 5RI       0.203900
     18 NAN         -1.7790    -1.9610     0.7520 nb         1 5RI      -0.299000
     19 CAY         -1.9380    -0.8250     0.0520 ca         1 5RI       0.437900
     20 NAR         -3.2050    -0.4160    -0.3120 nu         1 5RI      -0.931900
     21 CAZ         -4.5000    -0.9310    -0.2050 ca         1 5RI       0.360000
     22 CAI         -4.7120    -2.3240    -0.1450 ca         1 5RI      -0.127000
     23 CAF         -6.0040    -2.8550    -0.0300 ca         1 5RI      -0.069000
     24 CAG         -7.1050    -1.9940     0.0160 ca         1 5RI      -0.139000
     25 CAJ         -6.9170    -0.6060    -0.0650 ca         1 5RI      -0.070000
     26 CBC         -5.6160    -0.0500    -0.1840 ca         1 5RI      -0.199600
     27 CAV         -5.4380     1.4540    -0.2920 c          1 5RI       0.614700
     28 OAE         -4.3990     1.9820    -0.6690 o          1 5RI      -0.626100
     29 NAP         -6.5330     2.2270     0.0280 ns         1 5RI      -0.492900
     30 CAA         -6.5600     3.6900    -0.0350 c3         1 5RI       0.093300
     31 HAB1         4.1520    -3.4620     0.3940 h1         1 5RI       0.042533
     32 HAB2         4.2050    -3.3510    -1.3880 h1         1 5RI       0.042533
     33 HAB3         5.5440    -4.1060    -0.5010 h1         1 5RI       0.042533
     34 HAK          2.8210    -1.7060    -0.4700 ha         1 5RI       0.140500
     35 HAD1         7.6480    -1.2590     0.6940 h1         1 5RI       0.032033
     36 HAD2         7.7330    -1.1460    -1.0910 h1         1 5RI       0.032033
     37 HAD3         8.8540    -0.2170    -0.0820 h1         1 5RI       0.032033
     38 HAL          2.8120     2.5440    -0.1440 ha         1 5RI       0.140500
     39 HAC1         5.6100     4.8950     0.1110 h1         1 5RI       0.042533
     40 HAC2         4.2630     4.2870    -0.8730 h1         1 5RI       0.042533
     41 HAC3         4.1990     4.1690     0.9070 h1         1 5RI       0.042533
     42 HAH         -0.3190    -3.1640     1.6350 h5         1 5RI       0.048100
     43 HAQ          0.9350     1.3640    -0.6510 hn         1 5RI       0.513000
     44 HAR         -3.2210     0.5740    -0.5840 hn         1 5RI       0.550000
     45 HAI         -3.8760    -3.0110    -0.2060 ha         1 5RI       0.145000
     46 HAF         -6.1500    -3.9320     0.0170 ha         1 5RI       0.118000
     47 HAG         -8.1100    -2.4020     0.1000 ha         1 5RI       0.120000
     48 HAJ         -7.8040     0.0230    -0.0550 ha         1 5RI       0.113000
     49 HAP         -7.3600     1.7420     0.3510 hn         1 5RI       0.321500
     50 HAA1        -5.7970     4.1040     0.6370 h1         1 5RI       0.043033
     51 HAA2        -6.3580     4.0190    -1.0630 h1         1 5RI       0.043033
     52 HAA3        -7.5480     4.0530     0.2730 h1         1 5RI       0.043033
@<TRIPOS>BOND
     1     1     2 1   
     2     1    31 1   
     3     1    32 1   
     4     1    33 1   
     5     2     3 1   
     6     3     4 ar  
     7     3     5 ar  
     8     4    12 ar  
     9     4    34 1   
    10     5     6 1   
    11     5     8 ar  
    12     6     7 1   
    13     7    35 1   
    14     7    36 1   
    15     7    37 1   
    16     8     9 1   
    17     8    11 ar  
    18     9    10 1   
    19    10    39 1   
    20    10    40 1   
    21    10    41 1   
    22    11    12 ar  
    23    11    38 1   
    24    12    13 1   
    25    13    14 1   
    26    13    43 1   
    27    14    15 ar  
    28    14    16 ar  
    29    15    19 ar  
    30    16    17 ar  
    31    17    18 ar  
    32    17    42 1   
    33    18    19 ar  
    34    19    20 1   
    35    20    21 1   
    36    20    44 1   
    37    21    22 ar  
    38    21    26 ar  
    39    22    23 ar  
    40    22    45 1   
    41    23    24 ar  
    42    23    46 1   
    43    24    25 ar  
    44    24    47 1   
    45    25    26 ar  
    46    25    48 1   
    47    26    27 1   
    48    27    28 2   
    49    27    29 1   
    50    29    30 1   
    51    29    49 1   
    52    30    50 1   
    53    30    51 1   
    54    30    52 1   
@<TRIPOS>SUBSTRUCTURE
     1 5RI         1 TEMP              0 ****  ****    0 ROOT
