@<TRIPOS>MOLECULE
5RJ
   53    56     1     0     0
SMALL
No Charge or Current Charge


@<TRIPOS>ATOM
      1 C10         -2.7200    -2.3870    85.1300 c          1 5RJ       0.561600
      2 C13         -1.1690    -4.0130    83.0410 c3         1 5RJ      -0.059800
      3 C17          2.4470    -5.5080    84.6900 c6         1 5RJ       0.186300
      4 C20          5.3280    -5.0910    83.9860 c6         1 5RJ      -0.180400
      5 C21          4.2260    -4.1210    83.5390 c          1 5RJ       0.584100
      6 C24         -5.2850    -2.8880    87.0170 ca         1 5RJ      -0.101300
      7 C26         -6.8540    -4.7620    86.9760 ca         1 5RJ      -0.111000
      8 C28         -5.2460    -4.5800    88.7860 ca         1 5RJ      -0.114000
      9 C01          0.9510    -2.9900    84.0410 ca         1 5RJ      -0.166600
     10 C02          1.6010    -2.2140    85.0150 ca         1 5RJ      -0.054000
     11 C03          0.8670    -1.5500    86.0000 ca         1 5RJ      -0.097000
     12 C04         -0.5320    -1.6200    86.0350 ca         1 5RJ       0.123400
     13 C05         -1.2120    -2.3870    85.0530 ca         1 5RJ      -0.178600
     14 C06         -0.4670    -3.1010    84.0600 ca         1 5RJ       0.048700
     15 C12         -4.6910    -1.5960    86.4420 c3         1 5RJ       0.156300
     16 C14          1.7920    -3.6690    82.9850 c          1 5RJ       0.613700
     17 C16          2.8220    -4.7070    83.4220 c6         1 5RJ      -0.273700
     18 C18          3.5330    -6.5500    85.0530 c6         1 5RJ      -0.113400
     19 C19          4.9180    -5.8900    85.2450 c6         1 5RJ      -0.065400
     20 C25         -6.3590    -3.5770    86.3930 ca         1 5RJ      -0.053300
     21 C27         -6.3010    -5.2630    88.1650 ca         1 5RJ      -0.101000
     22 C29         -4.7440    -3.4000    88.2160 ca         1 5RJ      -0.096000
     23 C30         -7.0030    -3.0710    85.1050 c3         1 5RJ      -0.053800
     24 N07         -1.1610    -0.9040    87.0710 nc         1 5RJ      -0.250400
     25 N08         -2.4680    -0.9690    87.1160 nd         1 5RJ      -0.017600
     26 N09         -3.2310    -1.6630    86.2120 n          1 5RJ      -0.200800
     27 O11         -3.4580    -2.9330    84.3200 o          1 5RJ      -0.511000
     28 O15          1.6660    -3.3870    81.8000 o          1 5RJ      -0.492100
     29 O23          4.4670    -2.9410    83.3270 o          1 5RJ      -0.505100
     30 H1          -1.8570    -4.7030    83.5410 hc         1 5RJ       0.066033
     31 H2          -1.7390    -3.4240    82.3130 hc         1 5RJ       0.066033
     32 H3          -0.4890    -4.6550    82.4760 hc         1 5RJ       0.066033
     33 H4           2.3430    -4.8150    85.5390 h1         1 5RJ       0.041700
     34 H5           5.4290    -5.8350    83.1840 hc         1 5RJ       0.075200
     35 H6           6.2830    -4.5620    84.1110 hc         1 5RJ       0.075200
     36 H7          -7.6740    -5.3000    86.5070 ha         1 5RJ       0.112000
     37 H8          -4.8170    -4.9640    89.7090 ha         1 5RJ       0.113000
     38 H9           2.6840    -2.1130    85.0150 ha         1 5RJ       0.130000
     39 H10          1.3940    -0.9590    86.7460 ha         1 5RJ       0.142000
     40 H11         -4.9090    -0.7770    87.1400 h1         1 5RJ       0.077700
     41 H12         -5.1710    -1.3240    85.4950 h1         1 5RJ       0.077700
     42 H13          2.9240    -5.4470    82.6200 hc         1 5RJ       0.106700
     43 H14          3.2520    -7.0780    85.9750 hc         1 5RJ       0.056700
     44 H15          3.5970    -7.3160    84.2670 hc         1 5RJ       0.056700
     45 H16          5.6730    -6.6570    85.4660 hc         1 5RJ       0.052700
     46 H17          4.8910    -5.2190    86.1160 hc         1 5RJ       0.052700
     47 H18         -6.6920    -6.1780    88.6050 ha         1 5RJ       0.113000
     48 H19         -3.9260    -2.8810    88.7120 ha         1 5RJ       0.113000
     49 H20         -6.2800    -3.0520    84.2810 hc         1 5RJ       0.046033
     50 H21         -7.8370    -3.7090    84.7880 hc         1 5RJ       0.046033
     51 H22         -7.4020    -2.0580    85.2340 hc         1 5RJ       0.046033
     52 O22          1.2140    -6.1820    84.4600 oh         1 5RJ      -0.661000
     53 H23          1.0050    -6.6820    85.2800 ho         1 5RJ       0.450000
@<TRIPOS>BOND
     1     1    13 1   
     2     1    26 1   
     3     1    27 2   
     4     2    14 1   
     5     2    30 1   
     6     2    31 1   
     7     2    32 1   
     8     3    17 1   
     9     3    18 1   
    10     3    33 1   
    11     3    52 1   
    12     4     5 1   
    13     4    19 1   
    14     4    34 1   
    15     4    35 1   
    16     5    17 1   
    17     5    29 2   
    18     6    15 1   
    19     6    20 ar  
    20     6    22 ar  
    21     7    20 ar  
    22     7    21 ar  
    23     7    36 1   
    24     8    21 ar  
    25     8    22 ar  
    26     8    37 1   
    27     9    10 ar  
    28     9    14 ar  
    29     9    16 1   
    30    10    11 ar  
    31    10    38 1   
    32    11    12 ar  
    33    11    39 1   
    34    12    13 ar  
    35    12    24 1   
    36    13    14 ar  
    37    15    26 1   
    38    15    40 1   
    39    15    41 1   
    40    16    17 1   
    41    16    28 2   
    42    17    42 1   
    43    18    19 1   
    44    18    43 1   
    45    18    44 1   
    46    19    45 1   
    47    19    46 1   
    48    20    23 1   
    49    21    47 1   
    50    22    48 1   
    51    23    49 1   
    52    23    50 1   
    53    23    51 1   
    54    24    25 2   
    55    25    26 1   
    56    52    53 1   
@<TRIPOS>SUBSTRUCTURE
     1 5RJ         1 TEMP              0 ****  ****    0 ROOT
