@<TRIPOS>MOLECULE
5RJ
   53    56     1     0     0
SMALL
abcg2


@<TRIPOS>ATOM
      1 C10         -2.6960    -2.4970    85.0720 c          1 5RJ       0.561600
      2 C13         -1.2160    -4.1590    83.0620 c3         1 5RJ      -0.059800
      3 C17          2.5610    -5.6100    84.7340 c6         1 5RJ       0.186300
      4 C20          5.3590    -4.8610    84.0750 c6         1 5RJ      -0.180400
      5 C21          4.2010    -4.0230    83.6050 c          1 5RJ       0.584100
      6 C24         -5.2360    -2.9140    86.8890 ca         1 5RJ      -0.101300
      7 C26         -7.0050    -4.5340    87.0630 ca         1 5RJ      -0.111000
      8 C28         -5.0600    -4.7540    88.4560 ca         1 5RJ      -0.114000
      9 C01          0.8820    -3.1840    84.0900 ca         1 5RJ      -0.166600
     10 C02          1.5410    -2.4240    85.0710 ca         1 5RJ      -0.054000
     11 C03          0.8340    -1.7090    86.0060 ca         1 5RJ      -0.097000
     12 C04         -0.5620    -1.7570    85.9820 ca         1 5RJ       0.123400
     13 C05         -1.2380    -2.5300    85.0170 ca         1 5RJ      -0.178600
     14 C06         -0.5130    -3.2720    84.0530 ca         1 5RJ       0.048700
     15 C12         -4.6530    -1.6470    86.3020 c3         1 5RJ       0.156300
     16 C14          1.7300    -3.8580    83.0520 c          1 5RJ       0.613700
     17 C16          2.8690    -4.7690    83.4890 c6         1 5RJ      -0.273700
     18 C18          3.7360    -6.5050    85.1000 c6         1 5RJ      -0.113400
     19 C19          5.0010    -5.6780    85.3250 c6         1 5RJ      -0.065400
     20 C25         -6.4920    -3.3780    86.4710 ca         1 5RJ      -0.053300
     21 C27         -6.3020    -5.2210    88.0460 ca         1 5RJ      -0.101000
     22 C29         -4.5360    -3.6050    87.8770 ca         1 5RJ      -0.096000
     23 C30         -7.2870    -2.6680    85.4070 c3         1 5RJ      -0.053800
     24 N07         -1.2210    -1.0140    86.9510 nc         1 5RJ      -0.250400
     25 N08         -2.4800    -1.0110    87.0090 nd         1 5RJ      -0.017600
     26 N09         -3.2020    -1.7210    86.1220 n          1 5RJ      -0.200800
     27 O11         -3.4800    -3.0500    84.3140 o          1 5RJ      -0.511000
     28 O15          1.5250    -3.6740    81.8700 o          1 5RJ      -0.492100
     29 O23          4.3050    -2.8490    83.3130 o          1 5RJ      -0.505100
     30 H1          -1.9560    -4.7740    83.5670 hc         1 5RJ       0.066033
     31 H2          -1.7540    -3.5630    82.3230 hc         1 5RJ       0.066033
     32 H3          -0.5150    -4.8020    82.5410 hc         1 5RJ       0.066033
     33 H4           2.3490    -4.9430    85.5770 h1         1 5RJ       0.041700
     34 H5           5.6040    -5.5480    83.2570 hc         1 5RJ       0.075200
     35 H6           6.2160    -4.2090    84.2420 hc         1 5RJ       0.075200
     36 H7          -7.9730    -4.9000    86.7420 ha         1 5RJ       0.112000
     37 H8          -4.5000    -5.2780    89.2210 ha         1 5RJ       0.113000
     38 H9           2.6200    -2.3820    85.0780 ha         1 5RJ       0.130000
     39 H10          1.3290    -1.1110    86.7580 ha         1 5RJ       0.142000
     40 H11         -4.8270    -0.7960    86.9600 h1         1 5RJ       0.077700
     41 H12         -5.0920    -1.4270    85.3340 h1         1 5RJ       0.077700
     42 H13          3.0160    -5.4700    82.6580 hc         1 5RJ       0.106700
     43 H14          3.4840    -7.0670    86.0020 hc         1 5RJ       0.056700
     44 H15          3.8940    -7.2260    84.2930 hc         1 5RJ       0.056700
     45 H16          5.8380    -6.3290    85.5770 hc         1 5RJ       0.052700
     46 H17          4.8550    -5.0010    86.1720 hc         1 5RJ       0.052700
     47 H18         -6.7240    -6.1160    88.4870 ha         1 5RJ       0.113000
     48 H19         -3.5660    -3.2460    88.1980 ha         1 5RJ       0.113000
     49 H20         -6.7390    -2.6290    84.4610 hc         1 5RJ       0.046033
     50 H21         -8.2310    -3.1810    85.2290 hc         1 5RJ       0.046033
     51 H22         -7.5110    -1.6370    85.6910 hc         1 5RJ       0.046033
     52 O22          1.3850    -6.3540    84.4110 oh         1 5RJ      -0.661000
     53 H23          1.0480    -6.7590    85.2210 ho         1 5RJ       0.450000
@<TRIPOS>BOND
     1     1    13 1   
     2     1    26 1   
     3     1    27 2   
     4     2    14 1   
     5     2    30 1   
     6     2    31 1   
     7     2    32 1   
     8     3    17 1   
     9     3    18 1   
    10     3    33 1   
    11     3    52 1   
    12     4     5 1   
    13     4    19 1   
    14     4    34 1   
    15     4    35 1   
    16     5    17 1   
    17     5    29 2   
    18     6    15 1   
    19     6    20 ar  
    20     6    22 ar  
    21     7    20 ar  
    22     7    21 ar  
    23     7    36 1   
    24     8    21 ar  
    25     8    22 ar  
    26     8    37 1   
    27     9    10 ar  
    28     9    14 ar  
    29     9    16 1   
    30    10    11 ar  
    31    10    38 1   
    32    11    12 ar  
    33    11    39 1   
    34    12    13 ar  
    35    12    24 1   
    36    13    14 ar  
    37    15    26 1   
    38    15    40 1   
    39    15    41 1   
    40    16    17 1   
    41    16    28 2   
    42    17    42 1   
    43    18    19 1   
    44    18    43 1   
    45    18    44 1   
    46    19    45 1   
    47    19    46 1   
    48    20    23 1   
    49    21    47 1   
    50    22    48 1   
    51    23    49 1   
    52    23    50 1   
    53    23    51 1   
    54    24    25 2   
    55    25    26 1   
    56    52    53 1   
@<TRIPOS>SUBSTRUCTURE
     1 5RJ         1 TEMP              0 ****  ****    0 ROOT
