@<TRIPOS>MOLECULE
5RK
   62    65     1     0     0
SMALL
No Charge or Current Charge


@<TRIPOS>ATOM
      1 N1         -35.8990   -30.2670   -69.1840 n3         1 5RK      -0.718600
      2 C4         -34.4320   -32.2750   -69.7590 c6         1 5RK       0.172300
      3 C5         -35.7540   -31.7540   -69.1290 c6         1 5RK       0.130800
      4 C6         -34.8080   -27.9720   -68.6470 c3         1 5RK       0.157600
      5 C7         -37.2500   -29.8310   -68.7170 c3         1 5RK       0.226100
      6 C8         -37.5810   -30.2030   -67.2660 ca         1 5RK      -0.121300
      7 C10        -37.5840   -29.6810   -64.8780 ca         1 5RK      -0.100000
      8 C13        -38.2360   -31.4180   -66.9820 ca         1 5RK      -0.098500
      9 C15        -40.4360   -29.5720   -62.8910 ca         1 5RK       0.332000
     10 C17        -42.0680   -27.9120   -63.6120 ca         1 5RK      -0.047000
     11 C20        -39.7360   -28.5670   -62.2080 ca         1 5RK      -0.183000
     12 C22        -41.8220   -25.5010   -62.9390 cc         1 5RK       0.207500
     13 C24        -42.9150   -23.6150   -63.3550 cd         1 5RK      -0.183000
     14 C1         -34.7300   -29.5470   -68.5440 c6         1 5RK       0.172500
     15 C11        -38.2260   -30.9020   -64.5960 ca         1 5RK      -0.113300
     16 C12        -38.5530   -31.7670   -65.6580 ca         1 5RK      -0.100000
     17 C14        -38.5800   -31.2750   -63.1610 c3         1 5RK       0.261100
     18 C16        -41.6150   -29.2470   -63.5970 ca         1 5RK      -0.155300
     19 C18        -41.3620   -26.8960   -62.9310 ca         1 5RK      -0.175500
     20 C19        -40.1920   -27.2390   -62.2260 ca         1 5RK      -0.043000
     21 C2         -33.3620   -30.0450   -69.1430 c6         1 5RK       0.128300
     22 C23        -42.8610   -24.9900   -63.6690 cd         1 5RK      -0.188000
     23 C25        -41.9120   -23.3570   -62.4550 cc         1 5RK       0.116900
     24 C3         -33.2330   -31.5900   -69.0380 c6         1 5RK       0.178300
     25 C9         -37.2670   -29.3330   -66.2030 ca         1 5RK      -0.098500
     26 N2         -39.9670   -30.8860   -62.8640 nu         1 5RK      -0.957200
     27 O1         -34.3630   -33.7160   -69.6540 oh         1 5RK      -0.700000
     28 O2         -31.9630   -31.9850   -69.5950 oh         1 5RK      -0.644000
     29 O3         -32.2160   -29.4290   -68.5010 oh         1 5RK      -0.732000
     30 O4         -34.7150   -27.4740   -69.9950 oh         1 5RK      -0.648000
     31 O5         -41.2200   -24.5200   -62.1880 os         1 5RK      -0.243000
     32 H2         -34.4140   -31.9730   -70.8170 h1         1 5RK       0.055700
     33 H3         -36.5970   -32.2280   -69.6530 h1         1 5RK       0.041700
     34 H4         -35.7930   -32.0970   -68.0840 h1         1 5RK       0.041700
     35 H5         -33.9970   -27.5460   -68.0420 h1         1 5RK       0.021200
     36 H6         -35.7370   -27.6190   -68.1870 h1         1 5RK       0.021200
     37 H7         -37.3840   -28.7500   -68.8490 h1         1 5RK       0.063700
     38 H8         -38.0140   -30.2900   -69.3610 h1         1 5RK       0.063700
     39 H9         -37.3350   -28.9970   -64.0700 ha         1 5RK       0.111500
     40 H10        -38.5010   -32.0970   -67.7890 ha         1 5RK       0.110500
     41 H11        -42.9770   -27.6730   -64.1580 ha         1 5RK       0.111000
     42 H12        -38.8350   -28.8120   -61.6540 ha         1 5RK       0.117000
     43 H13        -42.7810   -31.0850   -63.6800 hc         1 5RK       0.038033
     44 H14        -43.2660   -29.8860   -64.8830 hc         1 5RK       0.038033
     45 H15        -41.7740   -30.8020   -65.1140 hc         1 5RK       0.038033
     46 H16        -43.6170   -22.8870   -63.7490 ha         1 5RK       0.139000
     47 H17        -34.7210   -29.7860   -67.4700 h1         1 5RK       0.044700
     48 H18        -39.0580   -32.7090   -65.4570 ha         1 5RK       0.111500
     49 H19        -38.4560   -32.3600   -63.0300 h1         1 5RK       0.059200
     50 H20        -37.8820   -30.7850   -62.4680 h1         1 5RK       0.059200
     51 H21        -39.6280   -26.4790   -61.6890 ha         1 5RK       0.121000
     52 H22        -33.3640   -29.7920   -70.2150 h1         1 5RK       0.071700
     53 H23        -43.5110   -25.5230   -64.3540 ha         1 5RK       0.138000
     54 H24        -41.5960   -22.4510   -61.9570 h4         1 5RK       0.050100
     55 H25        -33.2710   -31.8630   -67.9720 h1         1 5RK       0.049700
     56 H26        -36.7810   -28.3810   -66.3950 ha         1 5RK       0.110500
     57 H27        -40.6600   -31.5490   -63.2090 hn         1 5RK       0.477000
     58 H28        -34.9430   -34.0820   -70.3620 ho         1 5RK       0.501000
     59 H29        -31.3470   -31.2760   -69.2990 ho         1 5RK       0.453000
     60 H30        -32.1700   -28.5000   -68.8300 ho         1 5RK       0.511000
     61 H31        -34.9120   -26.5130   -69.9610 ho         1 5RK       0.440000
     62 C21        -42.4020   -30.3120   -64.3600 c3         1 5RK      -0.041800
@<TRIPOS>BOND
     1     1     3 1   
     2     1     5 1   
     3     1    14 1   
     4     2     3 1   
     5     2    24 1   
     6     2    27 1   
     7     2    32 1   
     8     3    33 1   
     9     3    34 1   
    10     4    14 1   
    11     4    30 1   
    12     4    35 1   
    13     4    36 1   
    14     5     6 1   
    15     5    37 1   
    16     5    38 1   
    17     6     8 ar  
    18     6    25 ar  
    19     7    15 ar  
    20     7    25 ar  
    21     7    39 1   
    22     8    16 ar  
    23     8    40 1   
    24     9    11 ar  
    25     9    18 ar  
    26     9    26 1   
    27    10    18 ar  
    28    10    19 ar  
    29    10    41 1   
    30    11    20 ar  
    31    11    42 1   
    32    12    19 1   
    33    12    22 2   
    34    12    31 1   
    35    13    22 1   
    36    13    23 2   
    37    13    46 1   
    38    14    21 1   
    39    14    47 1   
    40    15    16 ar  
    41    15    17 1   
    42    16    48 1   
    43    17    26 1   
    44    17    49 1   
    45    17    50 1   
    46    18    62 1   
    47    19    20 ar  
    48    20    51 1   
    49    21    24 1   
    50    21    29 1   
    51    21    52 1   
    52    22    53 1   
    53    23    31 1   
    54    23    54 1   
    55    24    28 1   
    56    24    55 1   
    57    25    56 1   
    58    26    57 1   
    59    27    58 1   
    60    28    59 1   
    61    29    60 1   
    62    30    61 1   
    63    43    62 1   
    64    44    62 1   
    65    45    62 1   
@<TRIPOS>SUBSTRUCTURE
     1 5RK         1 TEMP              0 ****  ****    0 ROOT
