@<TRIPOS>MOLECULE
5RK
   62    65     1     0     0
SMALL
bcc


@<TRIPOS>ATOM
      1 N1         -35.3310   -29.8610   -69.0360 n3         1 5RK      -0.718600
      2 C4         -34.9850   -32.0530   -70.1020 c6         1 5RK       0.149100
      3 C5         -35.8600   -31.2000   -69.1920 c6         1 5RK       0.130800
      4 C6         -33.4320   -28.4650   -68.2450 c3         1 5RK       0.134400
      5 C7         -36.3220   -28.9580   -68.4640 c3         1 5RK       0.226100
      6 C8         -36.8670   -29.3580   -67.1090 ca         1 5RK      -0.121300
      7 C10        -36.6940   -29.4820   -64.6980 ca         1 5RK      -0.118000
      8 C13        -38.0650   -30.0630   -67.0160 ca         1 5RK      -0.116500
      9 C15        -40.5510   -29.4600   -63.1550 ca         1 5RK       0.193600
     10 C17        -42.6750   -28.3230   -63.2430 ca         1 5RK      -0.065000
     11 C20        -39.9320   -28.2090   -63.0600 ca         1 5RK      -0.201000
     12 C22        -42.8680   -25.8600   -63.1230 cc         1 5RK       0.317200
     13 C24        -44.3910   -24.2240   -63.1090 cd         1 5RK      -0.266300
     14 C1         -34.0080   -29.8630   -68.4220 c6         1 5RK       0.172500
     15 C11        -37.8860   -30.1940   -64.6130 ca         1 5RK      -0.113300
     16 C12        -38.5700   -30.4740   -65.7910 ca         1 5RK      -0.118000
     17 C14        -38.4040   -30.6680   -63.2710 c3         1 5RK       0.261100
     18 C16        -41.9610   -29.5060   -63.2550 ca         1 5RK      -0.155300
     19 C18        -42.0620   -27.0690   -63.1370 ca         1 5RK      -0.175500
     20 C19        -40.6730   -27.0400   -63.0460 ca         1 5RK      -0.061000
     21 C2         -33.0690   -30.7110   -69.3000 c6         1 5RK       0.105100
     22 C23        -44.2130   -25.6380   -63.1510 cd         1 5RK      -0.271300
     23 C25        -43.1490   -23.6910   -63.0590 cc         1 5RK       0.226600
     24 C3         -33.5980   -32.1250   -69.5040 c6         1 5RK       0.155100
     25 C9         -36.1930   -29.0700   -65.9250 ca         1 5RK      -0.116500
     26 N2         -39.8340   -30.6290   -63.1180 nu         1 5RK      -0.763600
     27 O1         -35.4950   -33.3610   -70.2140 oh         1 5RK      -0.577800
     28 O2         -32.7560   -32.8650   -70.3520 oh         1 5RK      -0.581800
     29 O3         -31.7910   -30.8430   -68.7100 oh         1 5RK      -0.609800
     30 O4         -33.3790   -27.8110   -69.4900 oh         1 5RK      -0.585800
     31 O5         -42.2230   -24.6740   -63.0680 os         1 5RK      -0.331800
     32 H2         -34.9200   -31.5660   -71.0860 h1         1 5RK       0.055700
     33 H3         -36.8600   -31.1260   -69.6300 h1         1 5RK       0.041700
     34 H4         -35.9740   -31.7270   -68.2300 h1         1 5RK       0.041700
     35 H5         -32.4390   -28.5690   -67.7900 h1         1 5RK       0.021200
     36 H6         -34.0250   -27.8960   -67.5200 h1         1 5RK       0.021200
     37 H7         -35.9110   -27.9490   -68.4240 h1         1 5RK       0.063700
     38 H8         -37.1540   -28.9130   -69.1720 h1         1 5RK       0.063700
     39 H9         -36.1540   -29.2330   -63.7910 ha         1 5RK       0.129500
     40 H10        -38.6190   -30.2910   -67.9200 ha         1 5RK       0.128500
     41 H11        -43.7550   -28.3840   -63.3230 ha         1 5RK       0.129000
     42 H12        -38.8550   -28.1330   -62.9930 ha         1 5RK       0.135000
     43 H13        -42.4720   -31.4740   -62.5190 hc         1 5RK       0.038033
     44 H14        -43.7450   -30.6840   -63.4420 hc         1 5RK       0.038033
     45 H15        -42.3560   -31.3710   -64.2690 hc         1 5RK       0.038033
     46 H16        -45.3220   -23.6810   -63.1150 ha         1 5RK       0.157000
     47 H17        -34.0290   -30.3210   -67.4150 h1         1 5RK       0.044700
     48 H18        -39.5110   -31.0110   -65.7580 ha         1 5RK       0.129500
     49 H19        -38.0980   -31.7030   -63.1120 h1         1 5RK       0.059200
     50 H20        -37.9260   -30.0920   -62.4730 h1         1 5RK       0.059200
     51 H21        -40.1440   -26.0990   -62.9640 ha         1 5RK       0.139000
     52 H22        -32.9950   -30.2330   -70.2840 h1         1 5RK       0.071700
     53 H23        -44.9890   -26.3850   -63.1910 ha         1 5RK       0.156000
     54 H24        -42.7800   -22.6790   -63.0160 h4         1 5RK       0.050100
     55 H25        -33.6800   -32.6050   -68.5130 h1         1 5RK       0.049700
     56 H26        -35.2740   -28.4970   -65.9460 ha         1 5RK       0.128500
     57 H27        -40.3200   -31.4620   -63.4030 hn         1 5RK       0.421800
     58 H28        -36.3450   -33.3160   -70.6640 ho         1 5RK       0.402000
     59 H29        -31.8630   -32.8010   -69.9960 ho         1 5RK       0.414000
     60 H30        -31.2250   -30.1320   -69.0230 ho         1 5RK       0.412000
     61 H31        -32.9390   -26.9650   -69.3660 ho         1 5RK       0.401000
     62 C21        -42.6680   -30.8240   -63.3750 c3         1 5RK      -0.041800
@<TRIPOS>BOND
     1     1     3 1   
     2     1     5 1   
     3     1    14 1   
     4     2     3 1   
     5     2    24 1   
     6     2    27 1   
     7     2    32 1   
     8     3    33 1   
     9     3    34 1   
    10     4    14 1   
    11     4    30 1   
    12     4    35 1   
    13     4    36 1   
    14     5     6 1   
    15     5    37 1   
    16     5    38 1   
    17     6     8 ar  
    18     6    25 ar  
    19     7    15 ar  
    20     7    25 ar  
    21     7    39 1   
    22     8    16 ar  
    23     8    40 1   
    24     9    11 ar  
    25     9    18 ar  
    26     9    26 1   
    27    10    18 ar  
    28    10    19 ar  
    29    10    41 1   
    30    11    20 ar  
    31    11    42 1   
    32    12    19 1   
    33    12    22 2   
    34    12    31 1   
    35    13    22 1   
    36    13    23 2   
    37    13    46 1   
    38    14    21 1   
    39    14    47 1   
    40    15    16 ar  
    41    15    17 1   
    42    16    48 1   
    43    17    26 1   
    44    17    49 1   
    45    17    50 1   
    46    18    62 1   
    47    19    20 ar  
    48    20    51 1   
    49    21    24 1   
    50    21    29 1   
    51    21    52 1   
    52    22    53 1   
    53    23    31 1   
    54    23    54 1   
    55    24    28 1   
    56    24    55 1   
    57    25    56 1   
    58    26    57 1   
    59    27    58 1   
    60    28    59 1   
    61    29    60 1   
    62    30    61 1   
    63    43    62 1   
    64    44    62 1   
    65    45    62 1   
@<TRIPOS>SUBSTRUCTURE
     1 5RK         1 TEMP              0 ****  ****    0 ROOT
