@<TRIPOS>MOLECULE
5RL
   37    40     1     0     0
SMALL
No Charge or Current Charge


@<TRIPOS>ATOM
      1 C10          0.0800    -1.0010     0.0660 ca         1 5RL      -0.028000
      2 C11          1.0150     1.2560     0.2970 ca         1 5RL      -0.070300
      3 C12          1.2150    -0.1220     0.0090 ca         1 5RL      -0.092000
      4 C14         -2.1950    -2.7070     0.1930 ca         1 5RL      -0.107000
      5 C15          0.2100    -2.4010     0.2780 ca         1 5RL      -0.122000
      6 C16          2.0990     2.1500     0.3610 ca         1 5RL      -0.102000
      7 C19          3.6270     0.3760    -0.2480 ca         1 5RL       0.105100
      8 C20          3.4010     1.7100     0.1080 ca         1 5RL      -0.172000
      9 O02          4.9060    -0.0120    -0.5560 oh         1 5RL      -0.513100
     10 N03         -2.8370     1.5340     0.0550 n3         1 5RL      -0.709600
     11 C04         -1.4450     1.0470    -0.2290 c6         1 5RL       0.224800
     12 C05         -1.2400    -0.4670    -0.0210 ca         1 5RL      -0.064300
     13 C06         -0.3790     1.7970     0.5920 c6         1 5RL      -0.025100
     14 C07         -2.3650    -1.3260     0.0250 ca         1 5RL      -0.059300
     15 C08         -3.8330     0.6690    -0.6210 c6         1 5RL       0.167800
     16 C09         -3.7840    -0.7670    -0.0690 c6         1 5RL      -0.031100
     17 C17          2.5460    -0.5410    -0.3190 ca         1 5RL       0.126100
     18 C18         -0.9110    -3.2400     0.3310 ca         1 5RL      -0.105000
     19 H1          -2.8080     3.1630    -1.3310 h1         1 5RL       0.032033
     20 H2          -4.1060     3.2410    -0.1170 h1         1 5RL       0.032033
     21 H3          -2.4480     3.6220     0.3540 h1         1 5RL       0.032033
     22 H4          -3.0600    -3.3650     0.2440 ha         1 5RL       0.113000
     23 H5           1.1670    -2.8630     0.4950 ha         1 5RL       0.122000
     24 H6           1.9310     3.1950     0.6130 ha         1 5RL       0.116000
     25 H7           4.2260     2.4180     0.1620 ha         1 5RL       0.115000
     26 H8           1.9380    -2.1800    -1.0930 ho         1 5RL       0.468000
     27 H9           5.5000     0.7630    -0.4610 ho         1 5RL       0.458000
     28 H11         -4.8510     1.0610    -0.4790 h1         1 5RL       0.035200
     29 H12         -3.6420     0.6470    -1.7040 h1         1 5RL       0.035200
     30 H13         -4.4080    -1.4170    -0.6980 hc         1 5RL       0.057200
     31 H14         -4.2360    -0.7810     0.9310 hc         1 5RL       0.057200
     32 H15         -0.7840    -4.3070     0.5040 ha         1 5RL       0.116000
     33 H10         -0.5940     1.6930     1.6640 hc         1 5RL       0.061700
     34 H16         -0.4050     2.8700     0.3650 hc         1 5RL       0.061700
     35 H17         -1.2240     1.2380    -1.2900 h1         1 5RL       0.039700
     36 C13         -3.0560     2.9630    -0.2790 c3         1 5RL       0.150100
     37 O01          2.7970    -1.7850    -0.8400 oh         1 5RL      -0.522100
@<TRIPOS>BOND
     1     1     3 1   
     2     1     5 ar  
     3     1    12 ar  
     4     2     3 ar  
     5     2     6 ar  
     6     2    13 1   
     7     3    17 ar  
     8     4    14 ar  
     9     4    18 ar  
    10     4    22 1   
    11     5    18 ar  
    12     5    23 1   
    13     6     8 ar  
    14     6    24 1   
    15     7     8 ar  
    16     7     9 1   
    17     7    17 ar  
    18     8    25 1   
    19     9    27 1   
    20    10    11 1   
    21    10    15 1   
    22    10    36 1   
    23    11    12 1   
    24    11    13 1   
    25    11    35 1   
    26    12    14 ar  
    27    13    33 1   
    28    13    34 1   
    29    14    16 1   
    30    15    16 1   
    31    15    28 1   
    32    15    29 1   
    33    16    30 1   
    34    16    31 1   
    35    17    37 1   
    36    18    32 1   
    37    19    36 1   
    38    20    36 1   
    39    21    36 1   
    40    26    37 1   
@<TRIPOS>SUBSTRUCTURE
     1 5RL         1 TEMP              0 ****  ****    0 ROOT
