@<TRIPOS>MOLECULE
5RL
   37    40     1     0     0
SMALL
abcg2


@<TRIPOS>ATOM
      1 C10          0.0340    -0.9980     0.1050 ca         1 5RL      -0.028000
      2 C11          0.9710     1.2500     0.4620 ca         1 5RL      -0.070300
      3 C12          1.1810    -0.0720     0.0320 ca         1 5RL      -0.092000
      4 C14         -2.1960    -2.6630     0.2840 ca         1 5RL      -0.107000
      5 C15          0.1810    -2.3570     0.3810 ca         1 5RL      -0.122000
      6 C16          2.0290     2.1370     0.5010 ca         1 5RL      -0.102000
      7 C19          3.5090     0.4630    -0.3880 ca         1 5RL       0.105100
      8 C20          3.3000     1.7400     0.0990 ca         1 5RL      -0.172000
      9 O02          4.7030     0.0220    -0.8390 oh         1 5RL      -0.513100
     10 N03         -2.7620     1.4890    -0.0050 n3         1 5RL      -0.709600
     11 C04         -1.3960     1.0320    -0.1910 c6         1 5RL       0.224800
     12 C05         -1.2630    -0.4660    -0.0270 ca         1 5RL      -0.064300
     13 C06         -0.4280     1.6640     0.8110 c6         1 5RL      -0.025100
     14 C07         -2.3720    -1.3000     0.0520 ca         1 5RL      -0.059300
     15 C08         -3.6990     0.6490    -0.7290 c6         1 5RL       0.167800
     16 C09         -3.7500    -0.7270    -0.1020 c6         1 5RL      -0.031100
     17 C17          2.4410    -0.4440    -0.4450 ca         1 5RL       0.126100
     18 C18         -0.9290    -3.1860     0.4640 ca         1 5RL      -0.105000
     19 H1          -2.6680     3.0610    -1.4460 h1         1 5RL       0.032033
     20 H2          -3.9560     3.1820    -0.2360 h1         1 5RL       0.032033
     21 H3          -2.3010     3.5330     0.2200 h1         1 5RL       0.032033
     22 H4          -3.0630    -3.3100     0.3380 ha         1 5RL       0.113000
     23 H5           1.1570    -2.7800     0.5850 ha         1 5RL       0.122000
     24 H6           1.8690     3.1550     0.8350 ha         1 5RL       0.116000
     25 H7           4.1240     2.4430     0.1370 ha         1 5RL       0.115000
     26 H8           1.9160    -2.1030    -1.2450 ho         1 5RL       0.468000
     27 H9           5.3630     0.7180    -0.7500 ho         1 5RL       0.458000
     28 H11         -4.6880     1.1080    -0.6830 h1         1 5RL       0.035200
     29 H12         -3.4370     0.5700    -1.7980 h1         1 5RL       0.035200
     30 H13         -4.3670    -1.3930    -0.7090 hc         1 5RL       0.057200
     31 H14         -4.2320    -0.6610     0.8780 hc         1 5RL       0.057200
     32 H15         -0.7980    -4.2400     0.6740 ha         1 5RL       0.116000
     33 H10         -0.7050     1.3380     1.8200 hc         1 5RL       0.061700
     34 H16         -0.4890     2.7520     0.7960 hc         1 5RL       0.061700
     35 H17         -1.0380     1.2950    -1.2080 h1         1 5RL       0.039700
     36 C13         -2.9210     2.8770    -0.3900 c3         1 5RL       0.150100
     37 O01          2.7270    -1.6470    -0.9920 oh         1 5RL      -0.522100
@<TRIPOS>BOND
     1     1     3 1   
     2     1     5 ar  
     3     1    12 ar  
     4     2     3 ar  
     5     2     6 ar  
     6     2    13 1   
     7     3    17 ar  
     8     4    14 ar  
     9     4    18 ar  
    10     4    22 1   
    11     5    18 ar  
    12     5    23 1   
    13     6     8 ar  
    14     6    24 1   
    15     7     8 ar  
    16     7     9 1   
    17     7    17 ar  
    18     8    25 1   
    19     9    27 1   
    20    10    11 1   
    21    10    15 1   
    22    10    36 1   
    23    11    12 1   
    24    11    13 1   
    25    11    35 1   
    26    12    14 ar  
    27    13    33 1   
    28    13    34 1   
    29    14    16 1   
    30    15    16 1   
    31    15    28 1   
    32    15    29 1   
    33    16    30 1   
    34    16    31 1   
    35    17    37 1   
    36    18    32 1   
    37    19    36 1   
    38    20    36 1   
    39    21    36 1   
    40    26    37 1   
@<TRIPOS>SUBSTRUCTURE
     1 5RL         1 TEMP              0 ****  ****    0 ROOT
