@<TRIPOS>MOLECULE
5RM
   38    39     1     0     0
SMALL
bcc


@<TRIPOS>ATOM
      1 O19         -3.9520    -2.3920     0.4390 o          1 5RM      -0.610500
      2 C4          -3.5650    -1.2660     0.2350 c          1 5RM       0.834600
      3 O5          -2.4240    -1.0130    -0.4310 os         1 5RM      -0.400900
      4 N3          -4.1410    -0.0980     0.5760 ns         1 5RM      -0.599900
      5 C2          -3.2530     1.0160     0.3710 c5         1 5RM       0.069000
      6 C1          -2.2660     0.4000    -0.6450 c5         1 5RM       0.203100
      7 C18         -2.6750     0.7090    -2.0800 c3         1 5RM      -0.100100
      8 C6          -0.8330     0.7990    -0.3880 ca         1 5RM      -0.092300
      9 C7          -0.5150     2.1420    -0.2900 ca         1 5RM      -0.126000
     10 C8           0.8000     2.5490    -0.0780 ca         1 5RM      -0.190000
     11 C9           1.8150     1.6140     0.0380 ca         1 5RM       0.117100
     12 O10          3.1140     1.9010     0.2450 os         1 5RM      -0.294900
     13 C11          3.4860     3.2600     0.3460 c3         1 5RM       0.121700
     14 C12          1.4990     0.2450    -0.0630 ca         1 5RM       0.119100
     15 C17          0.1860    -0.1480    -0.2770 ca         1 5RM      -0.160000
     16 O13          2.5400    -0.5990     0.0640 os         1 5RM      -0.307900
     17 C14          2.3070    -1.9940    -0.0350 c3         1 5RM       0.136400
     18 C15          3.6230    -2.7140     0.1770 c3         1 5RM      -0.080400
     19 C16          3.4460    -4.2220     0.0660 c3         1 5RM      -0.090100
     20 H2          -3.7700     1.8820    -0.0410 h1         1 5RM       0.059700
     21 H181        -3.7210     0.4500    -2.2530 hc         1 5RM       0.052700
     22 H182        -2.5550     1.7720    -2.2840 hc         1 5RM       0.052700
     23 H183        -2.0560     0.1560    -2.7860 hc         1 5RM       0.052700
     24 H7          -1.2820     2.9020    -0.3710 ha         1 5RM       0.127000
     25 H8           1.0080     3.6070    -0.0020 ha         1 5RM       0.138000
     26 H111         4.5630     3.2760     0.4920 h1         1 5RM       0.040033
     27 H112         3.2450     3.8180    -0.5630 h1         1 5RM       0.040033
     28 H113         3.0080     3.7530     1.1970 h1         1 5RM       0.040033
     29 H17         -0.0510    -1.1990    -0.3570 ha         1 5RM       0.159000
     30 H141         1.5790    -2.3160     0.7190 h1         1 5RM       0.036200
     31 H142         1.8920    -2.2410    -1.0200 h1         1 5RM       0.036200
     32 H151         4.3520    -2.3700    -0.5620 hc         1 5RM       0.054700
     33 H152         4.0210    -2.4590     1.1620 hc         1 5RM       0.054700
     34 H161         4.3880    -4.7390     0.2440 hc         1 5RM       0.036367
     35 H162         2.7240    -4.5920     0.7950 hc         1 5RM       0.036367
     36 H163         3.0920    -4.5090    -0.9250 hc         1 5RM       0.036367
     37 H18         -4.9010    -0.0740     1.2370 hn         1 5RM       0.340500
     38 H19         -2.7570     1.3170     1.2980 h1         1 5RM       0.059700
@<TRIPOS>BOND
     1     1     2 2   
     2     2     3 1   
     3     2     4 1   
     4     3     6 1   
     5     4     5 1   
     6     4    37 1   
     7     5     6 1   
     8     5    20 1   
     9     5    38 1   
    10     6     7 1   
    11     6     8 1   
    12     7    21 1   
    13     7    22 1   
    14     7    23 1   
    15     8     9 ar  
    16     8    15 ar  
    17     9    10 ar  
    18     9    24 1   
    19    10    11 ar  
    20    10    25 1   
    21    11    12 1   
    22    11    14 ar  
    23    12    13 1   
    24    13    26 1   
    25    13    27 1   
    26    13    28 1   
    27    14    15 ar  
    28    14    16 1   
    29    15    29 1   
    30    16    17 1   
    31    17    18 1   
    32    17    30 1   
    33    17    31 1   
    34    18    19 1   
    35    18    32 1   
    36    18    33 1   
    37    19    34 1   
    38    19    35 1   
    39    19    36 1   
@<TRIPOS>SUBSTRUCTURE
     1 5RM         1 TEMP              0 ****  ****    0 ROOT
