@<TRIPOS>MOLECULE
5RM
   38    39     1     0     0
SMALL
No Charge or Current Charge


@<TRIPOS>ATOM
      1 O19         -4.0150    -2.4540     0.2320 o          1 5RM      -0.535000
      2 C4          -3.5650    -1.3330     0.0740 c          1 5RM       0.692100
      3 O5          -2.5030    -1.0120    -0.7080 os         1 5RM      -0.424100
      4 N3          -3.9900    -0.2230     0.7330 ns         1 5RM      -0.532900
      5 C2          -3.1760     0.9510     0.4600 c5         1 5RM       0.069000
      6 C1          -2.3360     0.4220    -0.7500 c5         1 5RM       0.226300
      7 C18         -2.8570     0.9150    -2.1200 c3         1 5RM      -0.100100
      8 C6          -0.8710     0.8250    -0.4810 ca         1 5RM      -0.092300
      9 C7          -0.5260     2.1910    -0.3960 ca         1 5RM      -0.108000
     10 C8           0.7980     2.5910    -0.1550 ca         1 5RM      -0.172000
     11 C9           1.8150     1.6270     0.0060 ca         1 5RM       0.117100
     12 O10          3.1320     1.9870     0.2450 os         1 5RM      -0.318100
     13 C11          3.5520     3.3590     0.3460 c3         1 5RM       0.144900
     14 C12          1.4900     0.2540    -0.0800 ca         1 5RM       0.119100
     15 C17          0.1530    -0.1380    -0.3230 ca         1 5RM      -0.142000
     16 O13          2.5060    -0.6760     0.0790 os         1 5RM      -0.331100
     17 C14          2.2770    -2.0940     0.0110 c3         1 5RM       0.159600
     18 C15          3.6300    -2.7960     0.2360 c3         1 5RM      -0.080400
     19 C16          3.5270    -4.3330     0.1880 c3         1 5RM      -0.090100
     20 H2          -3.7760     1.8320     0.1960 h1         1 5RM       0.059700
     21 H181        -3.8890     0.5880    -2.2940 hc         1 5RM       0.052700
     22 H182        -2.8420     2.0090    -2.1830 hc         1 5RM       0.052700
     23 H183        -2.2370     0.5260    -2.9360 hc         1 5RM       0.052700
     24 H7          -1.2920     2.9540    -0.5170 ha         1 5RM       0.109000
     25 H8           1.0130     3.6550    -0.0970 ha         1 5RM       0.120000
     26 H111         4.6310     3.4120     0.5380 h1         1 5RM       0.040033
     27 H112         3.3450     3.9000    -0.5850 h1         1 5RM       0.040033
     28 H113         3.0350     3.8650     1.1720 h1         1 5RM       0.040033
     29 H17         -0.0980    -1.1910    -0.3930 ha         1 5RM       0.141000
     30 H141         1.5680    -2.4100     0.7870 h1         1 5RM       0.036200
     31 H142         1.8770    -2.3760    -0.9710 h1         1 5RM       0.036200
     32 H151         4.3420    -2.4610    -0.5290 hc         1 5RM       0.054700
     33 H152         4.0360    -2.4940     1.2090 hc         1 5RM       0.054700
     34 H161         4.5110    -4.7880     0.3520 hc         1 5RM       0.036367
     35 H162         2.8450    -4.7010     0.9640 hc         1 5RM       0.036367
     36 H163         3.1530    -4.6660    -0.7880 hc         1 5RM       0.036367
     37 H18         -4.7460    -0.3030     1.4030 hn         1 5RM       0.340500
     38 H19         -2.5460     1.2090     1.3230 h1         1 5RM       0.059700
@<TRIPOS>BOND
     1     1     2 2   
     2     2     3 1   
     3     2     4 1   
     4     3     6 1   
     5     4     5 1   
     6     4    37 1   
     7     5     6 1   
     8     5    20 1   
     9     5    38 1   
    10     6     7 1   
    11     6     8 1   
    12     7    21 1   
    13     7    22 1   
    14     7    23 1   
    15     8     9 ar  
    16     8    15 ar  
    17     9    10 ar  
    18     9    24 1   
    19    10    11 ar  
    20    10    25 1   
    21    11    12 1   
    22    11    14 ar  
    23    12    13 1   
    24    13    26 1   
    25    13    27 1   
    26    13    28 1   
    27    14    15 ar  
    28    14    16 1   
    29    15    29 1   
    30    16    17 1   
    31    17    18 1   
    32    17    30 1   
    33    17    31 1   
    34    18    19 1   
    35    18    32 1   
    36    18    33 1   
    37    19    34 1   
    38    19    35 1   
    39    19    36 1   
@<TRIPOS>SUBSTRUCTURE
     1 5RM         1 TEMP              0 ****  ****    0 ROOT
