@<TRIPOS>MOLECULE
5RN
   21    22     1     0     0
SMALL
bcc


@<TRIPOS>ATOM
      1 CAA          3.5670     0.1550     0.0020 c3         1 5RN      -0.192100
      2 CAI          2.2240    -0.5350    -0.0130 c          1 5RN       0.611300
      3 OAB          2.1710    -1.7560    -0.0260 o          1 5RN      -0.546100
      4 CAJ          1.0170     0.2670    -0.0100 cc         1 5RN      -0.242400
      5 CAL         -0.3430    -0.2150    -0.0120 ca         1 5RN      -0.052800
      6 CAF         -0.9400    -1.4800    -0.0150 ca         1 5RN      -0.070000
      7 CAD         -2.3200    -1.5640    -0.0130 ca         1 5RN      -0.153000
      8 CAC         -3.1230    -0.4140    -0.0090 ca         1 5RN      -0.111000
      9 CAE         -2.5600     0.8490    -0.0060 ca         1 5RN      -0.144000
     10 CAK         -1.1710     0.9240    -0.0080 ca         1 5RN      -0.066200
     11 NAH         -0.3540     2.0280    -0.0050 na         1 5RN      -0.160400
     12 CAG          0.9350     1.6450    -0.0060 cd         1 5RN      -0.053100
     13 H1           3.5160     1.2410     0.0220 hc         1 5RN       0.055367
     14 H2           4.1300    -0.1750     0.8760 hc         1 5RN       0.055367
     15 H3           4.1360    -0.1430    -0.8790 hc         1 5RN       0.055367
     16 H4          -0.3360    -2.3750    -0.0170 ha         1 5RN       0.156000
     17 H5          -2.7940    -2.5370    -0.0150 ha         1 5RN       0.131000
     18 H6          -4.2000    -0.5160    -0.0070 ha         1 5RN       0.129000
     19 H7          -3.1750     1.7390    -0.0020 ha         1 5RN       0.131000
     20 H8          -0.6650     2.9870    -0.0050 hn         1 5RN       0.301700
     21 H9           1.7180     2.3860    -0.0030 h4         1 5RN       0.164000
@<TRIPOS>BOND
     1     1     2 1   
     2     1    13 1   
     3     1    14 1   
     4     1    15 1   
     5     2     3 2   
     6     2     4 1   
     7     4     5 1   
     8     4    12 2   
     9     5     6 ar  
    10     5    10 ar  
    11     6     7 ar  
    12     6    16 1   
    13     7     8 ar  
    14     7    17 1   
    15     8     9 ar  
    16     8    18 1   
    17     9    10 ar  
    18     9    19 1   
    19    10    11 1   
    20    11    12 1   
    21    11    20 1   
    22    12    21 1   
@<TRIPOS>SUBSTRUCTURE
     1 5RN         1 TEMP              0 ****  ****    0 ROOT
