@<TRIPOS>MOLECULE
5RN
   21    22     1     0     0
SMALL
No Charge or Current Charge


@<TRIPOS>ATOM
      1 CAA          3.5820     0.1280     0.0580 c3         1 5RN      -0.192100
      2 CAI          2.2330    -0.5930     0.0810 c          1 5RN       0.611300
      3 OAB          2.1950    -1.8140     0.1610 o          1 5RN      -0.546100
      4 CAJ          1.0040     0.2440     0.0020 cc         1 5RN      -0.242400
      5 CAL         -0.3680    -0.1940     0.0060 ca         1 5RN      -0.052800
      6 CAF         -0.9330    -1.4780     0.0800 ca         1 5RN      -0.052000
      7 CAD         -2.3400    -1.5840     0.0610 ca         1 5RN      -0.135000
      8 CAC         -3.1430    -0.4240    -0.0310 ca         1 5RN      -0.093000
      9 CAE         -2.5450     0.8510    -0.1050 ca         1 5RN      -0.126000
     10 CAK         -1.1450     0.9290    -0.0840 ca         1 5RN      -0.066200
     11 NAH         -0.3660     2.0720    -0.1450 na         1 5RN      -0.210700
     12 CAG          0.9800     1.6370    -0.0910 cd         1 5RN      -0.103100
     13 H1           3.6050     0.8680     0.8660 hc         1 5RN       0.055367
     14 H2           4.4310    -0.5620     0.1200 hc         1 5RN       0.055367
     15 H3           3.6370     0.7540    -0.8390 hc         1 5RN       0.055367
     16 H4          -0.3130    -2.3680     0.1510 ha         1 5RN       0.138000
     17 H5          -2.8080    -2.5640     0.1180 ha         1 5RN       0.113000
     18 H6          -4.2280    -0.5150    -0.0450 ha         1 5RN       0.111000
     19 H7          -3.1550     1.7490    -0.1760 ha         1 5RN       0.113000
     20 H8          -0.6940     3.0310    -0.2150 hn         1 5RN       0.352000
     21 H9           1.8040     2.3450    -0.1230 h4         1 5RN       0.214000
@<TRIPOS>BOND
     1     1     2 1   
     2     1    13 1   
     3     1    14 1   
     4     1    15 1   
     5     2     3 2   
     6     2     4 1   
     7     4     5 1   
     8     4    12 2   
     9     5     6 ar  
    10     5    10 ar  
    11     6     7 ar  
    12     6    16 1   
    13     7     8 ar  
    14     7    17 1   
    15     8     9 ar  
    16     8    18 1   
    17     9    10 ar  
    18     9    19 1   
    19    10    11 1   
    20    11    12 1   
    21    11    20 1   
    22    12    21 1   
@<TRIPOS>SUBSTRUCTURE
     1 5RN         1 TEMP              0 ****  ****    0 ROOT
