@<TRIPOS>MOLECULE
5RO
   24    25     1     0     0
SMALL
No Charge or Current Charge


@<TRIPOS>ATOM
      1 CAB          3.4000     1.3330     0.0910 c3         1 5RO      -0.042800
      2 CAJ          2.3300     0.2510     0.0440 ca         1 5RO      -0.091300
      3 CAE          2.6760    -1.1200     0.0290 ca         1 5RO      -0.093000
      4 CAD          1.6720    -2.1170    -0.0150 ca         1 5RO      -0.132000
      5 CAF          0.3080    -1.7590    -0.0450 ca         1 5RO      -0.054000
      6 CAL         -0.0080    -0.3920    -0.0290 ca         1 5RO      -0.048800
      7 CAM          0.9620     0.5730     0.0140 ca         1 5RO      -0.064200
      8 NAH          0.3640     1.8250     0.0200 na         1 5RO      -0.208700
      9 CAG         -1.0390     1.6990    -0.0200 cc         1 5RO      -0.110100
     10 CAK         -1.2700     0.3250    -0.0500 cd         1 5RO      -0.245400
     11 CAI         -2.6310    -0.2880    -0.0970 c          1 5RO       0.610300
     12 OAC         -2.8010    -1.5010    -0.1220 o          1 5RO      -0.540100
     13 CAA         -3.8440     0.6440    -0.1120 c3         1 5RO      -0.194100
     14 H1           3.3350     1.9870    -0.7860 hc         1 5RO       0.040033
     15 H2           3.2880     1.9560     0.9860 hc         1 5RO       0.040033
     16 H3           4.4090     0.9050     0.1110 hc         1 5RO       0.040033
     17 H4           3.7220    -1.4170     0.0520 ha         1 5RO       0.110000
     18 H5           1.9540    -3.1670    -0.0260 ha         1 5RO       0.114000
     19 H6          -0.4640    -2.5240    -0.0790 ha         1 5RO       0.138000
     20 H7           0.8700     2.7050     0.0480 hn         1 5RO       0.352000
     21 H8          -1.7130     2.5530    -0.0230 h4         1 5RO       0.213000
     22 H9          -3.7470     1.3410    -0.9530 hc         1 5RO       0.055700
     23 H10         -4.7950     0.1010    -0.1470 hc         1 5RO       0.055700
     24 H11         -3.7930     1.3110     0.7550 hc         1 5RO       0.055700
@<TRIPOS>BOND
     1     1     2 1   
     2     1    14 1   
     3     1    15 1   
     4     1    16 1   
     5     2     3 ar  
     6     2     7 ar  
     7     3     4 ar  
     8     3    17 1   
     9     4     5 ar  
    10     4    18 1   
    11     5     6 ar  
    12     5    19 1   
    13     6     7 ar  
    14     6    10 1   
    15     7     8 1   
    16     8     9 1   
    17     8    20 1   
    18     9    10 2   
    19     9    21 1   
    20    10    11 1   
    21    11    12 2   
    22    11    13 1   
    23    13    22 1   
    24    13    23 1   
    25    13    24 1   
@<TRIPOS>SUBSTRUCTURE
     1 5RO         1 TEMP              0 ****  ****    0 ROOT
