@<TRIPOS>MOLECULE
5RO
   24    25     1     0     0
SMALL
bcc


@<TRIPOS>ATOM
      1 CAB          3.3670     1.3380     0.0880 c3         1 5RO      -0.042800
      2 CAJ          2.3340     0.2540     0.0470 ca         1 5RO      -0.091300
      3 CAE          2.6520    -1.0930     0.0270 ca         1 5RO      -0.111000
      4 CAD          1.6640    -2.0890    -0.0170 ca         1 5RO      -0.150000
      5 CAF          0.3210    -1.7740    -0.0440 ca         1 5RO      -0.072000
      6 CAL         -0.0440    -0.4230    -0.0260 ca         1 5RO      -0.048800
      7 CAM          0.9690     0.5520     0.0200 ca         1 5RO      -0.064200
      8 NAH          0.3570     1.7840     0.0300 na         1 5RO      -0.158400
      9 CAG         -0.9790     1.6310    -0.0080 cc         1 5RO      -0.060100
     10 CAK         -1.2970     0.2890    -0.0440 cd         1 5RO      -0.245400
     11 CAI         -2.6350    -0.2720    -0.0960 c          1 5RO       0.610300
     12 OAC         -2.8170    -1.4790    -0.1250 o          1 5RO      -0.540100
     13 CAA         -3.7950     0.6930    -0.1180 c3         1 5RO      -0.194100
     14 H1           3.2970     1.9910    -0.7840 hc         1 5RO       0.040033
     15 H2           3.2530     1.9690     0.9720 hc         1 5RO       0.040033
     16 H3           4.3720     0.9200     0.1080 hc         1 5RO       0.040033
     17 H4           3.6950    -1.3860     0.0460 ha         1 5RO       0.128000
     18 H5           1.9680    -3.1280    -0.0300 ha         1 5RO       0.132000
     19 H6          -0.4290    -2.5510    -0.0780 ha         1 5RO       0.156000
     20 H7           0.8250     2.6750     0.0590 hn         1 5RO       0.301700
     21 H8          -1.6280     2.4920    -0.0060 h4         1 5RO       0.163000
     22 H9          -3.7520     1.3290    -1.0030 hc         1 5RO       0.055700
     23 H10         -4.7400     0.1540    -0.1230 hc         1 5RO       0.055700
     24 H11         -3.7720     1.3500     0.7520 hc         1 5RO       0.055700
@<TRIPOS>BOND
     1     1     2 1   
     2     1    14 1   
     3     1    15 1   
     4     1    16 1   
     5     2     3 ar  
     6     2     7 ar  
     7     3     4 ar  
     8     3    17 1   
     9     4     5 ar  
    10     4    18 1   
    11     5     6 ar  
    12     5    19 1   
    13     6     7 ar  
    14     6    10 1   
    15     7     8 1   
    16     8     9 1   
    17     8    20 1   
    18     9    10 2   
    19     9    21 1   
    20    10    11 1   
    21    11    12 2   
    22    11    13 1   
    23    13    22 1   
    24    13    23 1   
    25    13    24 1   
@<TRIPOS>SUBSTRUCTURE
     1 5RO         1 TEMP              0 ****  ****    0 ROOT
