@<TRIPOS>MOLECULE
5RU
   30    32     1     0     0
SMALL
No Charge or Current Charge


@<TRIPOS>ATOM
      1 C11          5.4310     0.1430     1.5980 ca         1 5RU      -0.129000
      2 C12          6.1990     0.0900     0.4220 ca         1 5RU      -0.075000
      3 C10          4.0400    -0.0590     1.5450 ca         1 5RU      -0.067000
      4 C13          5.5710    -0.1640    -0.8100 ca         1 5RU      -0.154000
      5 C9           3.4060    -0.3160     0.3130 ca         1 5RU      -0.131300
      6 C3          -2.4890    -0.4830     0.0690 cc         1 5RU       0.095500
      7 C14          4.1830    -0.3650    -0.8630 ca         1 5RU       0.189000
      8 C4          -2.8290     0.8410    -0.0860 cd         1 5RU       0.150400
      9 C2          -3.5470    -1.5200     0.1280 c          1 5RU       0.521500
     10 C18         -5.0210     0.3460    -0.1320 cc         1 5RU       0.734800
     11 C6          -0.6710     0.6070     0.0360 cd         1 5RU       0.512800
     12 C8           1.8980    -0.5310     0.2660 c3         1 5RU       0.125900
     13 N17         -4.1320     1.3130    -0.1950 nd         1 5RU      -0.706100
     14 N5          -1.6590     1.5510    -0.1080 na         1 5RU      -0.294500
     15 N20         -4.7900    -0.9780     0.0170 ns         1 5RU      -0.457400
     16 N16         -1.1200    -0.6340     0.1470 nc         1 5RU      -0.610000
     17 O1          -3.3730    -2.7250     0.2580 o          1 5RU      -0.517000
     18 F15          3.5990    -0.6060    -2.0590 f          1 5RU      -0.170000
     19 S7           1.0230     1.0840     0.0630 ss         1 5RU      -0.353300
     20 H1           5.9140     0.3410     2.5520 ha         1 5RU       0.121000
     21 H2           7.2750     0.2460     0.4650 ha         1 5RU       0.118000
     22 H3           3.4560    -0.0120     2.4620 ha         1 5RU       0.121000
     23 H4           6.1590    -0.2050    -1.7230 ha         1 5RU       0.134000
     24 H5           1.6310    -1.1960    -0.5660 h1         1 5RU       0.093700
     25 H6           1.5600    -1.0090     1.1950 h1         1 5RU       0.093700
     26 H7          -1.5390     2.5470    -0.2080 hn         1 5RU       0.374000
     27 H8          -5.5680    -1.6160     0.0230 hn         1 5RU       0.323500
     28 H10         -6.9540     0.1410     0.2870 hn         1 5RU       0.500500
     29 H11         -6.4270     1.7060    -0.1490 hn         1 5RU       0.500500
     30 N19         -6.2860     0.7060    -0.2220 nv         1 5RU      -1.043200
@<TRIPOS>BOND
     1     1     2 ar  
     2     1     3 ar  
     3     1    20 1   
     4     2     4 ar  
     5     2    21 1   
     6     3     5 ar  
     7     3    22 1   
     8     4     7 ar  
     9     4    23 1   
    10     5     7 ar  
    11     5    12 1   
    12     6     8 2   
    13     6     9 1   
    14     6    16 1   
    15     7    18 1   
    16     8    13 1   
    17     8    14 1   
    18     9    15 1   
    19     9    17 2   
    20    10    13 2   
    21    10    15 1   
    22    10    30 1   
    23    11    14 1   
    24    11    16 2   
    25    11    19 1   
    26    12    19 1   
    27    12    24 1   
    28    12    25 1   
    29    14    26 1   
    30    15    27 1   
    31    28    30 1   
    32    29    30 1   
@<TRIPOS>SUBSTRUCTURE
     1 5RU         1 TEMP              0 ****  ****    0 ROOT
