@<TRIPOS>MOLECULE
5RU
   30    32     1     0     0
SMALL
abcg2


@<TRIPOS>ATOM
      1 C11          5.4280     0.0830     1.5520 ca         1 5RU      -0.129000
      2 C12          6.1110     0.1280     0.3440 ca         1 5RU      -0.075000
      3 C10          4.0590    -0.1420     1.5610 ca         1 5RU      -0.067000
      4 C13          5.4300    -0.0490    -0.8520 ca         1 5RU      -0.154000
      5 C9           3.3510    -0.3290     0.3770 ca         1 5RU      -0.131300
      6 C3          -2.4200    -0.5440     0.1000 cc         1 5RU       0.095500
      7 C14          4.0670    -0.2690    -0.8100 ca         1 5RU       0.189000
      8 C4          -2.7760     0.7770    -0.0990 cd         1 5RU       0.150400
      9 C2          -3.4480    -1.5220     0.1900 c          1 5RU       0.521500
     10 C18         -4.9540     0.4030    -0.1420 cc         1 5RU       0.734800
     11 C6          -0.6020     0.5320     0.0360 cd         1 5RU       0.512800
     12 C8           1.8730    -0.5640     0.3850 c3         1 5RU       0.125900
     13 N17         -4.0020     1.3010    -0.2220 nd         1 5RU      -0.706100
     14 N5          -1.5990     1.4560    -0.1390 na         1 5RU      -0.294500
     15 N20         -4.7090    -0.9250     0.0510 ns         1 5RU      -0.457400
     16 N16         -1.0530    -0.6750     0.1820 nc         1 5RU      -0.610000
     17 O1          -3.3490    -2.7270     0.3610 o          1 5RU      -0.517000
     18 F15          3.4040    -0.4350    -1.9650 f          1 5RU      -0.170000
     19 S7           1.0660     1.0370     0.0480 ss         1 5RU      -0.353300
     20 H1           5.9580     0.2240     2.4840 ha         1 5RU       0.121000
     21 H2           7.1790     0.2990     0.3280 ha         1 5RU       0.118000
     22 H3           3.5230    -0.1820     2.5020 ha         1 5RU       0.121000
     23 H4           5.9470    -0.0150    -1.8020 ha         1 5RU       0.134000
     24 H5           1.5600    -1.2820    -0.3700 h1         1 5RU       0.093700
     25 H6           1.5460    -0.9240     1.3580 h1         1 5RU       0.093700
     26 H7          -1.4920     2.4510    -0.2630 hn         1 5RU       0.374000
     27 H8          -5.4980    -1.5570     0.0940 hn         1 5RU       0.323500
     28 H10         -6.9840     0.1610    -0.0090 hn         1 5RU       0.500500
     29 H11         -6.4370     1.7590    -0.2680 hn         1 5RU       0.500500
     30 N19         -6.2360     0.7730    -0.2860 nv         1 5RU      -1.043200
@<TRIPOS>BOND
     1     1     2 ar  
     2     1     3 ar  
     3     1    20 1   
     4     2     4 ar  
     5     2    21 1   
     6     3     5 ar  
     7     3    22 1   
     8     4     7 ar  
     9     4    23 1   
    10     5     7 ar  
    11     5    12 1   
    12     6     8 2   
    13     6     9 1   
    14     6    16 1   
    15     7    18 1   
    16     8    13 1   
    17     8    14 1   
    18     9    15 1   
    19     9    17 2   
    20    10    13 2   
    21    10    15 1   
    22    10    30 1   
    23    11    14 1   
    24    11    16 2   
    25    11    19 1   
    26    12    19 1   
    27    12    24 1   
    28    12    25 1   
    29    14    26 1   
    30    15    27 1   
    31    28    30 1   
    32    29    30 1   
@<TRIPOS>SUBSTRUCTURE
     1 5RU         1 TEMP              0 ****  ****    0 ROOT
