@<TRIPOS>MOLECULE
5RV
   31    33     1     0     0
SMALL
No Charge or Current Charge


@<TRIPOS>ATOM
      1 C1          -3.5200    -1.2590    -1.5810 cg         1 5RV       0.317000
      2 C2          -6.1370     0.4360     0.4970 ca         1 5RV      -0.106000
      3 C3          -5.3750     0.9380     1.5630 ca         1 5RV      -0.091000
      4 C4          -5.5130    -0.2880    -0.5320 ca         1 5RV      -0.074000
      5 C5          -3.9880     0.7160     1.6000 ca         1 5RV      -0.098000
      6 C6          -4.1210    -0.5160    -0.5030 ca         1 5RV       0.003000
      7 C7          -3.3480    -0.0120     0.5750 ca         1 5RV      -0.051300
      8 C8           2.5500    -0.3780     0.4470 cc         1 5RV       0.137500
      9 C9           2.8570     0.6220    -0.3930 cd         1 5RV       0.204000
     10 C10          3.6820    -1.1710     0.9820 c          1 5RV       0.662000
     11 C11          5.1610     0.1910    -0.2850 cc         1 5RV       0.906100
     12 C12          0.7430     0.5550    -0.1750 cd         1 5RV       0.507800
     13 C13         -1.8360    -0.2250     0.6580 c3         1 5RV       0.111900
     14 N14         -3.0380    -1.8710    -2.4500 n1         1 5RV      -0.437000
     15 N15          4.1430     0.9140    -0.7870 na         1 5RV      -0.924200
     16 N16          1.7420     1.2480    -0.8380 na         1 5RV      -0.312500
     17 N17          4.9670    -0.7880     0.5430 nd         1 5RV      -0.788100
     18 N18          1.1770    -0.4350     0.6080 nc         1 5RV      -0.599000
     19 O20          3.5710    -2.1110     1.7580 o          1 5RV      -0.527100
     20 S21         -0.9440     0.9910    -0.4140 ss         1 5RV      -0.353300
     21 H1          -7.2110     0.6080     0.4680 ha         1 5RV       0.122000
     22 H2          -5.8570     1.5000     2.3590 ha         1 5RV       0.121000
     23 H3          -6.1130    -0.6710    -1.3550 ha         1 5RV       0.128000
     24 H4          -3.4080     1.1140     2.4300 ha         1 5RV       0.124000
     25 H5          -1.4970    -0.1010     1.6950 h1         1 5RV       0.099200
     26 H6          -1.5750    -1.2460     0.3510 h1         1 5RV       0.099200
     27 H7           4.3470     1.6350    -1.4650 hn         1 5RV       0.503000
     28 H8           1.6460     2.0180    -1.4810 hn         1 5RV       0.365000
     29 H10          7.0530     0.0570    -0.1020 hn         1 5RV       0.505000
     30 H11          6.4970     1.5170    -0.7580 hn         1 5RV       0.505000
     31 N19          6.3520     0.5240    -0.6590 nv         1 5RV      -1.059200
@<TRIPOS>BOND
     1     1     6 1   
     2     1    14 3   
     3     2     3 ar  
     4     2     4 ar  
     5     2    21 1   
     6     3     5 ar  
     7     3    22 1   
     8     4     6 ar  
     9     4    23 1   
    10     5     7 ar  
    11     5    24 1   
    12     6     7 ar  
    13     7    13 1   
    14     8     9 2   
    15     8    10 1   
    16     8    18 1   
    17     9    15 1   
    18     9    16 1   
    19    10    17 1   
    20    10    19 2   
    21    11    15 1   
    22    11    17 2   
    23    11    31 1   
    24    12    16 1   
    25    12    18 2   
    26    12    20 1   
    27    13    20 1   
    28    13    25 1   
    29    13    26 1   
    30    15    27 1   
    31    16    28 1   
    32    29    31 1   
    33    30    31 1   
@<TRIPOS>SUBSTRUCTURE
     1 5RV         1 TEMP              0 ****  ****    0 ROOT
