@<TRIPOS>MOLECULE
5RV
   31    33     1     0     0
SMALL
bcc


@<TRIPOS>ATOM
      1 C1          -3.2070    -1.2810    -1.3840 cg         1 5RV       0.227800
      2 C2          -6.0460     0.3440     0.3450 ca         1 5RV      -0.124000
      3 C3          -5.4000     0.9170     1.4310 ca         1 5RV      -0.109000
      4 C4          -5.3200    -0.3840    -0.5820 ca         1 5RV      -0.092000
      5 C5          -4.0290     0.7650     1.5930 ca         1 5RV      -0.116000
      6 C6          -3.9440    -0.5320    -0.4170 ca         1 5RV       0.003000
      7 C7          -3.2800     0.0370     0.6790 ca         1 5RV      -0.051300
      8 C8           2.4620    -0.3750     0.3610 cc         1 5RV       0.202800
      9 C9           2.7950     0.7140    -0.3930 cd         1 5RV       0.051000
     10 C10          3.5060    -1.2680     0.8090 c          1 5RV       0.662000
     11 C11          5.0290     0.1380    -0.3110 cc         1 5RV       0.906100
     12 C12          0.6490     0.6380    -0.0740 cd         1 5RV       0.507800
     13 C13         -1.8000    -0.1050     0.8490 c3         1 5RV       0.064000
     14 N14         -2.6200    -1.8920    -2.1650 n1         1 5RV      -0.347800
     15 N15          4.0690     1.0070    -0.7490 na         1 5RV      -0.730600
     16 N16          1.6470     1.3670    -0.6740 na         1 5RV      -0.312900
     17 N17          4.7760    -0.9180     0.4140 nd         1 5RV      -0.788100
     18 N18          1.1000    -0.4040     0.5530 nc         1 5RV      -0.599000
     19 O20          3.3070    -2.2690     1.4890 o          1 5RV      -0.527100
     20 S21         -1.0120     1.1480    -0.2160 ss         1 5RV      -0.305400
     21 H1          -7.1140     0.4610     0.2190 ha         1 5RV       0.140000
     22 H2          -5.9640     1.4860     2.1580 ha         1 5RV       0.139000
     23 H3          -5.8110    -0.8370    -1.4320 ha         1 5RV       0.146000
     24 H4          -3.5340     1.2160     2.4430 ha         1 5RV       0.142000
     25 H5          -1.5050     0.0690     1.8830 h1         1 5RV       0.099200
     26 H6          -1.4400    -1.0890     0.5510 h1         1 5RV       0.099200
     27 H7           4.2960     1.8150    -1.3110 hn         1 5RV       0.447800
     28 H8           1.5430     2.2140    -1.2130 hn         1 5RV       0.314700
     29 H10          7.0250    -0.1590    -0.3080 hn         1 5RV       0.449800
     30 H11          6.5430     1.2850    -1.1010 hn         1 5RV       0.449800
     31 N19          6.2860     0.4040    -0.6910 nv         1 5RV      -0.948800
@<TRIPOS>BOND
     1     1     6 1   
     2     1    14 3   
     3     2     3 ar  
     4     2     4 ar  
     5     2    21 1   
     6     3     5 ar  
     7     3    22 1   
     8     4     6 ar  
     9     4    23 1   
    10     5     7 ar  
    11     5    24 1   
    12     6     7 ar  
    13     7    13 1   
    14     8     9 2   
    15     8    10 1   
    16     8    18 1   
    17     9    15 1   
    18     9    16 1   
    19    10    17 1   
    20    10    19 2   
    21    11    15 1   
    22    11    17 2   
    23    11    31 1   
    24    12    16 1   
    25    12    18 2   
    26    12    20 1   
    27    13    20 1   
    28    13    25 1   
    29    13    26 1   
    30    15    27 1   
    31    16    28 1   
    32    29    31 1   
    33    30    31 1   
@<TRIPOS>SUBSTRUCTURE
     1 5RV         1 TEMP              0 ****  ****    0 ROOT
