@<TRIPOS>MOLECULE
5RW
   30    32     1     0     0
SMALL
abcg2


@<TRIPOS>ATOM
      1 C1          -3.8230    -0.4630     1.1910 ca         1 5RW      -0.064000
      2 C2          -3.7670    -0.3610    -1.2040 ca         1 5RW      -0.064000
      3 C3          -5.1920    -0.2420     1.1780 ca         1 5RW      -0.154000
      4 C4          -5.1350    -0.1400    -1.2380 ca         1 5RW      -0.154000
      5 C5          -3.0980    -0.5290     0.0050 ca         1 5RW      -0.110300
      6 C6          -5.8230    -0.0840    -0.0410 ca         1 5RW       0.181000
      7 C7           3.0020     0.7310    -0.0150 cc         1 5RW      -0.362600
      8 C8           2.6680    -0.6110    -0.0030 cd         1 5RW       0.563000
      9 C9           0.8430     0.4700     0.0210 cc         1 5RW       0.554800
     10 C10          4.3480     1.1660    -0.0450 c          1 5RW       0.625600
     11 C11          4.8050    -1.2520    -0.0400 cc         1 5RW       0.710800
     12 C12         -1.6150    -0.7440     0.0280 c3         1 5RW       0.125900
     13 N13          1.8060     1.4090     0.0010 na         1 5RW      -0.252500
     14 N14          3.5550    -1.6270    -0.0110 nd         1 5RW      -0.736700
     15 N15          1.3170    -0.7580     0.0200 nd         1 5RW      -0.690000
     16 N16          5.1980     0.0590    -0.0560 ns         1 5RW      -0.448400
     17 N17          5.7850    -2.1720    -0.0980 nv         1 5RW      -1.044200
     18 O18          4.7870     2.3070    -0.0610 o          1 5RW      -0.549000
     19 F19         -7.1480     0.1270    -0.0640 f          1 5RW      -0.176000
     20 S20         -0.8390     0.9100     0.0430 ss         1 5RW      -0.352300
     21 H1          -3.3170    -0.5920     2.1390 ha         1 5RW       0.123500
     22 H2          -3.2160    -0.4100    -2.1360 ha         1 5RW       0.123500
     23 H3          -5.7580    -0.1950     2.1000 ha         1 5RW       0.135000
     24 H4          -5.6550    -0.0130    -2.1780 ha         1 5RW       0.135000
     25 H5          -1.2980    -1.2860     0.9170 h1         1 5RW       0.091200
     26 H6          -1.2690    -1.2820    -0.8530 h1         1 5RW       0.091200
     27 H7           1.6790     2.4100    -0.0030 hn         1 5RW       0.379000
     28 H9           6.1890     0.2650    -0.0910 hn         1 5RW       0.324500
     29 H10          5.5250    -3.1280     0.0800 hn         1 5RW       0.497500
     30 H11          6.7350    -1.9260     0.1200 hn         1 5RW       0.497500
@<TRIPOS>BOND
     1     1     3 ar  
     2     1     5 ar  
     3     1    21 1   
     4     2     4 ar  
     5     2     5 ar  
     6     2    22 1   
     7     3     6 ar  
     8     3    23 1   
     9     4     6 ar  
    10     4    24 1   
    11     5    12 1   
    12     6    19 1   
    13     7     8 2   
    14     7    10 1   
    15     7    13 1   
    16     8    14 1   
    17     8    15 1   
    18     9    13 1   
    19     9    15 2   
    20     9    20 1   
    21    10    16 1   
    22    10    18 2   
    23    11    14 2   
    24    11    16 1   
    25    11    17 1   
    26    12    20 1   
    27    12    25 1   
    28    12    26 1   
    29    13    27 1   
    30    16    28 1   
    31    17    29 1   
    32    17    30 1   
@<TRIPOS>SUBSTRUCTURE
     1 5RW         1 TEMP              0 ****  ****    0 ROOT
