@<TRIPOS>MOLECULE
5RW
   30    32     1     0     0
SMALL
No Charge or Current Charge


@<TRIPOS>ATOM
      1 C1          -3.8400    -0.4360     1.2010 ca         1 5RW      -0.064000
      2 C2          -3.8510    -0.3700    -1.2350 ca         1 5RW      -0.064000
      3 C3          -5.2360    -0.2600     1.2110 ca         1 5RW      -0.154000
      4 C4          -5.2460    -0.1940    -1.2230 ca         1 5RW      -0.154000
      5 C5          -3.1420    -0.4930    -0.0220 ca         1 5RW      -0.110300
      6 C6          -5.9340    -0.1410    -0.0010 ca         1 5RW       0.181000
      7 C7           3.0900     0.7090    -0.0170 cc         1 5RW      -0.362600
      8 C8           2.7060    -0.6080    -0.0520 cd         1 5RW       0.563000
      9 C9           0.9110     0.4910    -0.0130 cc         1 5RW       0.554800
     10 C10          4.4820     1.1170    -0.0160 c          1 5RW       0.625600
     11 C11          4.8630    -1.2130    -0.0770 cc         1 5RW       0.710800
     12 C12         -1.6320    -0.6810    -0.0340 c3         1 5RW       0.125900
     13 N13          1.9040     1.4280     0.0070 na         1 5RW      -0.252500
     14 N14          3.6290    -1.6330    -0.0850 nd         1 5RW      -0.736700
     15 N15          1.3450    -0.7510    -0.0490 nd         1 5RW      -0.690000
     16 N16          5.3040     0.0550    -0.0460 ns         1 5RW      -0.448400
     17 N17          5.7940    -2.1480    -0.1040 nv         1 5RW      -1.044200
     18 O18          4.8760     2.2700     0.0080 o          1 5RW      -0.549000
     19 F19         -7.2740     0.0290     0.0100 f          1 5RW      -0.176000
     20 S20         -0.7790     0.9590     0.0070 ss         1 5RW      -0.352300
     21 H1          -3.3020    -0.5250     2.1430 ha         1 5RW       0.123500
     22 H2          -3.3210    -0.4080    -2.1850 ha         1 5RW       0.123500
     23 H3          -5.7750    -0.2160     2.1530 ha         1 5RW       0.135000
     24 H4          -5.7940    -0.0990    -2.1570 ha         1 5RW       0.135000
     25 H5          -1.3210    -1.2730     0.8360 h1         1 5RW       0.091200
     26 H6          -1.3280    -1.2240    -0.9380 h1         1 5RW       0.091200
     27 H7           1.7720     2.4320     0.0350 hn         1 5RW       0.379000
     28 H9           6.2910     0.2440    -0.0710 hn         1 5RW       0.324500
     29 H10          5.4280    -3.0790     0.0570 hn         1 5RW       0.497500
     30 H11          6.6690    -1.9450     0.3630 hn         1 5RW       0.497500
@<TRIPOS>BOND
     1     1     3 ar  
     2     1     5 ar  
     3     1    21 1   
     4     2     4 ar  
     5     2     5 ar  
     6     2    22 1   
     7     3     6 ar  
     8     3    23 1   
     9     4     6 ar  
    10     4    24 1   
    11     5    12 1   
    12     6    19 1   
    13     7     8 2   
    14     7    10 1   
    15     7    13 1   
    16     8    14 1   
    17     8    15 1   
    18     9    13 1   
    19     9    15 2   
    20     9    20 1   
    21    10    16 1   
    22    10    18 2   
    23    11    14 2   
    24    11    16 1   
    25    11    17 1   
    26    12    20 1   
    27    12    25 1   
    28    12    26 1   
    29    13    27 1   
    30    16    28 1   
    31    17    29 1   
    32    17    30 1   
@<TRIPOS>SUBSTRUCTURE
     1 5RW         1 TEMP              0 ****  ****    0 ROOT
