@<TRIPOS>MOLECULE
5RX
   30    32     1     0     0
SMALL
No Charge or Current Charge


@<TRIPOS>ATOM
      1 C1          -3.3970    -0.2630     1.2240 ca         1 5RX      -0.083000
      2 C2          -3.4180    -0.2940    -1.2110 ca         1 5RX      -0.083000
      3 C3          -4.7910    -0.0760     1.2330 ca         1 5RX      -0.105000
      4 C4          -4.8120    -0.1070    -1.2000 ca         1 5RX      -0.105000
      5 C5          -2.7050    -0.3740     0.0020 ca         1 5RX      -0.089300
      6 C6           3.1970    -0.4820    -0.0480 cc         1 5RX       0.094500
      7 C7          -5.4970     0.0010     0.0210 ca         1 5RX       0.127000
      8 C8           3.5290     0.8520    -0.0690 cd         1 5RX       0.152400
      9 C9           4.2610    -1.5140    -0.0460 c          1 5RX       0.521500
     10 C10          5.7260     0.3780    -0.0810 cc         1 5RX       0.735800
     11 C11          1.3700     0.5950    -0.0460 cd         1 5RX       0.509800
     12 C12         -1.1960    -0.5740    -0.0090 c3         1 5RX       0.119900
     13 N13          4.8310     1.3400    -0.0870 nd         1 5RX      -0.707100
     14 N14          2.3550     1.5540    -0.0670 na         1 5RX      -0.294500
     15 N15          5.5020    -0.9560    -0.0620 ns         1 5RX      -0.457400
     16 N16          1.8270    -0.6480    -0.0340 nc         1 5RX      -0.611000
     17 O18          4.0950    -2.7260    -0.0340 o          1 5RX      -0.516000
     18 S19         -0.3280     1.0580    -0.0370 ss         1 5RX      -0.356300
     19 Cl1         -7.2400     0.2360     0.0330 cl         1 5RX      -0.202000
     20 H1          -2.8560    -0.3180     2.1660 ha         1 5RX       0.123500
     21 H2          -2.8940    -0.3740    -2.1610 ha         1 5RX       0.123500
     22 H3          -5.3230     0.0100     2.1770 ha         1 5RX       0.131500
     23 H4          -5.3610    -0.0450    -2.1370 ha         1 5RX       0.131500
     24 H5          -0.8850    -1.1330     0.8830 h1         1 5RX       0.090700
     25 H6          -0.9000    -1.1560    -0.8920 h1         1 5RX       0.090700
     26 H7           2.2280     2.5540    -0.0800 hn         1 5RX       0.375000
     27 H8           6.2860    -1.5870    -0.0870 hn         1 5RX       0.323500
     28 H10          7.1070     1.7430     0.0800 hn         1 5RX       0.501000
     29 H11          7.6490     0.1540     0.3900 hn         1 5RX       0.501000
     30 N17          6.9890     0.7520    -0.0920 nv         1 5RX      -1.042200
@<TRIPOS>BOND
     1     1     3 ar  
     2     1     5 ar  
     3     1    20 1   
     4     2     4 ar  
     5     2     5 ar  
     6     2    21 1   
     7     3     7 ar  
     8     3    22 1   
     9     4     7 ar  
    10     4    23 1   
    11     5    12 1   
    12     6     8 2   
    13     6     9 1   
    14     6    16 1   
    15     7    19 1   
    16     8    13 1   
    17     8    14 1   
    18     9    15 1   
    19     9    17 2   
    20    10    13 2   
    21    10    15 1   
    22    10    30 1   
    23    11    14 1   
    24    11    16 2   
    25    11    18 1   
    26    12    18 1   
    27    12    24 1   
    28    12    25 1   
    29    14    26 1   
    30    15    27 1   
    31    28    30 1   
    32    29    30 1   
@<TRIPOS>SUBSTRUCTURE
     1 5RX         1 TEMP              0 ****  ****    0 ROOT
