@<TRIPOS>MOLECULE
5RX
   30    32     1     0     0
SMALL
bcc


@<TRIPOS>ATOM
      1 C1          -3.3450    -0.2830     1.1990 ca         1 5RX      -0.101000
      2 C2          -3.3600    -0.2880    -1.1980 ca         1 5RX      -0.101000
      3 C3          -4.7110    -0.0480     1.2160 ca         1 5RX      -0.123000
      4 C4          -4.7260    -0.0520    -1.1990 ca         1 5RX      -0.123000
      5 C5          -2.6560    -0.4110    -0.0040 ca         1 5RX      -0.089300
      6 C6           3.1240    -0.5450    -0.0260 cc         1 5RX       0.159800
      7 C7          -5.3890     0.0660     0.0130 ca         1 5RX       0.035400
      8 C8           3.4700     0.7930    -0.0460 cd         1 5RX       0.137800
      9 C9           4.1600    -1.5190    -0.0110 c          1 5RX       0.664000
     10 C10          5.6530     0.4440    -0.0400 cc         1 5RX       0.735800
     11 C11          1.2950     0.5150    -0.0400 cd         1 5RX       0.509800
     12 C12         -1.1760    -0.6420    -0.0120 c3         1 5RX       0.072000
     13 N13          4.6940     1.3370    -0.0510 nd         1 5RX      -0.707100
     14 N14          2.2870     1.4620    -0.0530 na         1 5RX      -0.294900
     15 N15          5.4170    -0.8990    -0.0190 ns         1 5RX      -0.524400
     16 N16          1.7570    -0.6970    -0.0230 nc         1 5RX      -0.611000
     17 O18          4.0690    -2.7360     0.0080 o          1 5RX      -0.591500
     18 S19         -0.3800     0.9980    -0.0420 ss         1 5RX      -0.308400
     19 CL1         -7.0980     0.3570     0.0230 cl         1 5RX      -0.110400
     20 H1          -2.8120    -0.3760     2.1370 ha         1 5RX       0.141500
     21 H2          -2.8390    -0.3850    -2.1430 ha         1 5RX       0.141500
     22 H3          -5.2370     0.0460     2.1560 ha         1 5RX       0.149500
     23 H4          -5.2640     0.0390    -2.1330 ha         1 5RX       0.149500
     24 H5          -0.8450    -1.1740     0.8780 h1         1 5RX       0.090700
     25 H6          -0.8590    -1.2010    -0.8920 h1         1 5RX       0.090700
     26 H7           2.1730     2.4640    -0.0670 hn         1 5RX       0.324700
     27 H8           6.2120    -1.5260    -0.0170 hn         1 5RX       0.323500
     28 H10          7.1230     1.8170     0.0530 hn         1 5RX       0.445800
     29 H11          7.6780     0.2040     0.1480 hn         1 5RX       0.445800
     30 N17          6.9340     0.8390    -0.0870 nv         1 5RX      -0.931800
@<TRIPOS>BOND
     1     1     3 ar  
     2     1     5 ar  
     3     1    20 1   
     4     2     4 ar  
     5     2     5 ar  
     6     2    21 1   
     7     3     7 ar  
     8     3    22 1   
     9     4     7 ar  
    10     4    23 1   
    11     5    12 1   
    12     6     8 2   
    13     6     9 1   
    14     6    16 1   
    15     7    19 1   
    16     8    13 1   
    17     8    14 1   
    18     9    15 1   
    19     9    17 2   
    20    10    13 2   
    21    10    15 1   
    22    10    30 1   
    23    11    14 1   
    24    11    16 2   
    25    11    18 1   
    26    12    18 1   
    27    12    24 1   
    28    12    25 1   
    29    14    26 1   
    30    15    27 1   
    31    28    30 1   
    32    29    30 1   
@<TRIPOS>SUBSTRUCTURE
     1 5RX         1 TEMP              0 ****  ****    0 ROOT
