@<TRIPOS>MOLECULE
5RY
   31    33     1     0     0
SMALL
No Charge or Current Charge


@<TRIPOS>ATOM
      1 C1           6.9750     0.2090     0.3120 cg         1 5RY       0.317000
      2 C2           4.7970     0.0740     1.4660 ca         1 5RY      -0.092000
      3 C3           3.4030    -0.1130     1.4340 ca         1 5RY      -0.072000
      4 C4           4.8960    -0.2280    -0.9460 ca         1 5RY      -0.120000
      5 C5           5.5500     0.0170     0.2770 ca         1 5RY       0.019000
      6 C6           2.7470    -0.3600     0.2110 ca         1 5RY      -0.109300
      7 C7          -3.1530    -0.4530     0.0630 cc         1 5RY       0.090500
      8 C8           3.5050    -0.4140    -0.9760 ca         1 5RY       0.187000
      9 C9          -3.4780     0.8760    -0.0780 cd         1 5RY       0.157400
     10 C10         -4.2230    -1.4770     0.1330 c          1 5RY       0.522500
     11 C11         -5.6750     0.4090    -0.0910 cc         1 5RY       0.751800
     12 C12         -1.3220     0.6150     0.0080 cd         1 5RY       0.509800
     13 C13          1.2360    -0.5570     0.1880 c3         1 5RY       0.116900
     14 N14          8.1320     0.3630     0.3300 n1         1 5RY      -0.437000
     15 N15         -4.7770     1.3650    -0.1620 nd         1 5RY      -0.714100
     16 N16         -2.3010     1.5720    -0.1140 na         1 5RY      -0.295500
     17 N17         -5.4600    -0.9180     0.0460 ns         1 5RY      -0.460400
     18 N18         -1.7850    -0.6210     0.1180 nc         1 5RY      -0.609000
     19 O20         -4.0620    -2.6840     0.2520 o          1 5RY      -0.516000
     20 F21          2.8980    -0.6440    -2.1630 f          1 5RY      -0.161000
     21 S22          0.3780     1.0700     0.0090 ss         1 5RY      -0.348300
     22 H1           5.2900     0.2640     2.4180 ha         1 5RY       0.134000
     23 H2           2.8340    -0.0620     2.3600 ha         1 5RY       0.130000
     24 H3           5.4610    -0.2730    -1.8740 ha         1 5RY       0.147000
     25 H4           0.9480    -1.2130    -0.6430 h1         1 5RY       0.098200
     26 H5           0.9070    -1.0360     1.1200 h1         1 5RY       0.098200
     27 H6          -2.1700     2.5670    -0.2090 hn         1 5RY       0.375000
     28 H7          -6.2460    -1.5460     0.0590 hn         1 5RY       0.322500
     29 H9          -7.5950     0.2400     0.3810 hn         1 5RY       0.511500
     30 H10         -7.0530     1.7900    -0.0770 hn         1 5RY       0.511500
     31 N19         -6.9350     0.7870    -0.1570 nv         1 5RY      -1.063200
@<TRIPOS>BOND
     1     1     5 1   
     2     1    14 3   
     3     2     3 ar  
     4     2     5 ar  
     5     2    22 1   
     6     3     6 ar  
     7     3    23 1   
     8     4     5 ar  
     9     4     8 ar  
    10     4    24 1   
    11     6     8 ar  
    12     6    13 1   
    13     7     9 2   
    14     7    10 1   
    15     7    18 1   
    16     8    20 1   
    17     9    15 1   
    18     9    16 1   
    19    10    17 1   
    20    10    19 2   
    21    11    15 2   
    22    11    17 1   
    23    11    31 1   
    24    12    16 1   
    25    12    18 2   
    26    12    21 1   
    27    13    21 1   
    28    13    25 1   
    29    13    26 1   
    30    16    27 1   
    31    17    28 1   
    32    29    31 1   
    33    30    31 1   
@<TRIPOS>SUBSTRUCTURE
     1 5RY         1 TEMP              0 ****  ****    0 ROOT
