@<TRIPOS>MOLECULE
5RY
   31    33     1     0     0
SMALL
abcg2


@<TRIPOS>ATOM
      1 C1           6.8620     0.2420     0.1950 cg         1 5RY       0.317000
      2 C2           4.7820    -0.0120     1.4470 ca         1 5RY      -0.092000
      3 C3           3.4140    -0.2160     1.4600 ca         1 5RY      -0.072000
      4 C4           4.7570    -0.1090    -0.9750 ca         1 5RY      -0.120000
      5 C5           5.4490     0.0380     0.2250 ca         1 5RY       0.019000
      6 C6           2.6930    -0.3720     0.2800 ca         1 5RY      -0.109300
      7 C7          -3.0700    -0.5060     0.1090 cc         1 5RY       0.090500
      8 C8           3.3950    -0.3070    -0.9170 ca         1 5RY       0.187000
      9 C9          -3.4160     0.8180    -0.0810 cd         1 5RY       0.157400
     10 C10         -4.1060    -1.4740     0.2160 c          1 5RY       0.522500
     11 C11         -5.5990     0.4690    -0.0810 cc         1 5RY       0.751800
     12 C12         -1.2430     0.5490     0.0090 cd         1 5RY       0.509800
     13 C13          1.2130    -0.5840     0.3020 c3         1 5RY       0.116900
     14 N14          8.0020     0.4060     0.1730 n1         1 5RY      -0.437000
     15 N15         -4.6370     1.3560    -0.1810 nd         1 5RY      -0.714100
     16 N16         -2.2320     1.4840    -0.1440 na         1 5RY      -0.295500
     17 N17         -5.3630    -0.8640     0.1050 ns         1 5RY      -0.460400
     18 N18         -1.7030    -0.6530     0.1620 nc         1 5RY      -0.609000
     19 O20         -4.0170    -2.6800     0.3820 o          1 5RY      -0.516000
     20 F21          2.7200    -0.4440    -2.0620 f          1 5RY      -0.161000
     21 S22          0.4320     1.0340    -0.0080 ss         1 5RY      -0.348300
     22 H1           5.3270     0.1060     2.3730 ha         1 5RY       0.134000
     23 H2           2.8900    -0.2600     2.4060 ha         1 5RY       0.130000
     24 H3           5.2680    -0.0690    -1.9280 ha         1 5RY       0.147000
     25 H4           0.8840    -1.2900    -0.4590 h1         1 5RY       0.098200
     26 H5           0.8930    -0.9510     1.2750 h1         1 5RY       0.098200
     27 H6          -2.1170     2.4800    -0.2650 hn         1 5RY       0.375000
     28 H7          -6.1560    -1.4890     0.1700 hn         1 5RY       0.322500
     29 H9          -7.6460     0.2240    -0.0490 hn         1 5RY       0.511500
     30 H10         -7.0800     1.8350    -0.2770 hn         1 5RY       0.511500
     31 N19         -6.8740     0.8570    -0.1680 nv         1 5RY      -1.063200
@<TRIPOS>BOND
     1     1     5 1   
     2     1    14 3   
     3     2     3 ar  
     4     2     5 ar  
     5     2    22 1   
     6     3     6 ar  
     7     3    23 1   
     8     4     5 ar  
     9     4     8 ar  
    10     4    24 1   
    11     6     8 ar  
    12     6    13 1   
    13     7     9 2   
    14     7    10 1   
    15     7    18 1   
    16     8    20 1   
    17     9    15 1   
    18     9    16 1   
    19    10    17 1   
    20    10    19 2   
    21    11    15 2   
    22    11    17 1   
    23    11    31 1   
    24    12    16 1   
    25    12    18 2   
    26    12    21 1   
    27    13    21 1   
    28    13    25 1   
    29    13    26 1   
    30    16    27 1   
    31    17    28 1   
    32    29    31 1   
    33    30    31 1   
@<TRIPOS>SUBSTRUCTURE
     1 5RY         1 TEMP              0 ****  ****    0 ROOT
