@<TRIPOS>MOLECULE
5RZ
   32    34     1     0     0
SMALL
No Charge or Current Charge


@<TRIPOS>ATOM
      1 C1           3.6620     1.8190     0.0330 ca         1 5RZ      -0.060500
      2 C2           2.4240    -0.2770     0.0140 ca         1 5RZ      -0.060500
      3 C3           4.8720     1.1030     0.0370 ca         1 5RZ      -0.099000
      4 C4           3.6370    -0.9880     0.0190 ca         1 5RZ      -0.099000
      5 C5           2.4200     1.1400     0.0210 ca         1 5RZ      -0.164600
      6 C6          -4.2280    -0.6580    -0.0340 cc         1 5RZ       0.093500
      7 C7           4.8580    -0.2990     0.0300 ca         1 5RZ       0.006100
      8 C8          -5.1100     0.3980    -0.0350 cd         1 5RZ       0.153400
      9 C9          -4.7370    -2.0510    -0.0470 c          1 5RZ       0.521500
     10 C10         -6.8800    -0.9870    -0.0540 cc         1 5RZ       0.736800
     11 C11         -3.0540     1.1090    -0.0160 cd         1 5RZ       0.495800
     12 C12          1.1270     1.9360     0.0170 c          1 5RZ       0.595700
     13 C13         -0.2120     1.1740     0.0040 c3         1 5RZ      -0.066400
     14 N14         -6.4940     0.2700    -0.0460 nd         1 5RZ      -0.706100
     15 N15         -4.3590     1.5420    -0.0240 na         1 5RZ      -0.293500
     16 N16         -6.0970    -2.0900    -0.0550 ns         1 5RZ      -0.458400
     17 N17         -2.9230    -0.2090    -0.0220 nc         1 5RZ      -0.616000
     18 O19          1.1540     3.1630     0.0230 o          1 5RZ      -0.506100
     19 O20         -4.0580    -3.0690    -0.0530 o          1 5RZ      -0.517000
     20 S21         -1.7240     2.2660    -0.0010 ss         1 5RZ      -0.279300
     21 Br1          6.5050    -1.2710     0.0360 br         1 5RZ      -0.085100
     22 H1           3.6980     2.9070     0.0380 ha         1 5RZ       0.133000
     23 H2           1.4970    -0.8460     0.0050 ha         1 5RZ       0.133000
     24 H3           5.8190     1.6380     0.0460 ha         1 5RZ       0.135500
     25 H4           3.6280    -2.0760     0.0130 ha         1 5RZ       0.135500
     26 H5          -0.2250     0.5380    -0.8890 h1         1 5RZ       0.106700
     27 H6          -0.2370     0.5290     0.8900 h1         1 5RZ       0.106700
     28 H7          -4.6830     2.4970    -0.0210 hn         1 5RZ       0.376000
     29 H8          -6.5260    -2.9990    -0.0890 hn         1 5RZ       0.323500
     30 H10         -8.5020    -2.0370     0.4120 hn         1 5RZ       0.501000
     31 H11         -8.7270    -0.3690     0.1240 hn         1 5RZ       0.501000
     32 N18         -8.1810    -1.2010    -0.0590 nv         1 5RZ      -1.042200
@<TRIPOS>BOND
     1     1     3 ar  
     2     1     5 ar  
     3     1    22 1   
     4     2     4 ar  
     5     2     5 ar  
     6     2    23 1   
     7     3     7 ar  
     8     3    24 1   
     9     4     7 ar  
    10     4    25 1   
    11     5    12 1   
    12     6     8 2   
    13     6     9 1   
    14     6    17 1   
    15     7    21 1   
    16     8    14 1   
    17     8    15 1   
    18     9    16 1   
    19     9    19 2   
    20    10    14 2   
    21    10    16 1   
    22    10    32 1   
    23    11    15 1   
    24    11    17 2   
    25    11    20 1   
    26    12    13 1   
    27    12    18 2   
    28    13    20 1   
    29    13    26 1   
    30    13    27 1   
    31    15    28 1   
    32    16    29 1   
    33    30    32 1   
    34    31    32 1   
@<TRIPOS>SUBSTRUCTURE
     1 5RZ         1 TEMP              0 ****  ****    0 ROOT
