@<TRIPOS>MOLECULE
5RZ
   32    34     1     0     0
SMALL
bcc


@<TRIPOS>ATOM
      1 C1           3.5260     1.8190     0.0200 ca         1 5RZ      -0.078500
      2 C2           2.3840    -0.2960     0.0390 ca         1 5RZ      -0.078500
      3 C3           4.7460     1.1700     0.0670 ca         1 5RZ      -0.117000
      4 C4           3.5990    -0.9600     0.0860 ca         1 5RZ      -0.117000
      5 C5           2.3320     1.0960     0.0050 ca         1 5RZ      -0.164600
      6 C6          -4.1180    -0.6990    -0.1140 cc         1 5RZ       0.158800
      7 C7           4.7710    -0.2190     0.0990 ca         1 5RZ       0.006100
      8 C8          -4.9950     0.3620     0.0060 cd         1 5RZ       0.138800
      9 C9          -4.6440    -2.0190    -0.1630 c          1 5RZ       0.664000
     10 C10         -6.8220    -0.8800     0.0490 cc         1 5RZ       0.736800
     11 C11         -2.9110     1.0370    -0.0780 cd         1 5RZ       0.495800
     12 C12          1.0480     1.8370    -0.0420 c          1 5RZ       0.595700
     13 C13         -0.2280     1.0360    -0.0710 c3         1 5RZ      -0.114300
     14 N14         -6.3310     0.3340     0.0940 nd         1 5RZ      -0.706100
     15 N15         -4.2070     1.4690     0.0270 na         1 5RZ      -0.293900
     16 N16         -6.0430    -1.9940    -0.0720 ns         1 5RZ      -0.525400
     17 N17         -2.8170    -0.2540    -0.1670 nc         1 5RZ      -0.616000
     18 O19          1.0130     3.0480    -0.0590 o          1 5RZ      -0.506100
     19 O20         -4.0490    -3.0790    -0.2670 o          1 5RZ      -0.592500
     20 S21         -1.6110     2.2000    -0.0880 ss         1 5RZ      -0.231400
     21 BR1          6.4280    -1.1100     0.1640 br         1 5RZ      -0.085100
     22 H1           3.5070     2.9000    -0.0050 ha         1 5RZ       0.151000
     23 H2           1.4820    -0.8940     0.0290 ha         1 5RZ       0.151000
     24 H3           5.6600     1.7470     0.0780 ha         1 5RZ       0.153500
     25 H4           3.6180    -2.0410     0.1110 ha         1 5RZ       0.153500
     26 H5          -0.2610     0.3990    -0.9570 h1         1 5RZ       0.106700
     27 H6          -0.2980     0.3850     0.8020 h1         1 5RZ       0.106700
     28 H7          -4.5260     2.4220     0.1240 hn         1 5RZ       0.325700
     29 H8          -6.4990    -2.8970    -0.1050 hn         1 5RZ       0.323500
     30 H10         -8.5390    -1.9750     0.2750 hn         1 5RZ       0.445800
     31 H11         -8.7220    -0.2780     0.3410 hn         1 5RZ       0.445800
     32 N18         -8.1500    -1.0670     0.0890 nv         1 5RZ      -0.931800
@<TRIPOS>BOND
     1     1     3 ar  
     2     1     5 ar  
     3     1    22 1   
     4     2     4 ar  
     5     2     5 ar  
     6     2    23 1   
     7     3     7 ar  
     8     3    24 1   
     9     4     7 ar  
    10     4    25 1   
    11     5    12 1   
    12     6     8 2   
    13     6     9 1   
    14     6    17 1   
    15     7    21 1   
    16     8    14 1   
    17     8    15 1   
    18     9    16 1   
    19     9    19 2   
    20    10    14 2   
    21    10    16 1   
    22    10    32 1   
    23    11    15 1   
    24    11    17 2   
    25    11    20 1   
    26    12    13 1   
    27    12    18 2   
    28    13    20 1   
    29    13    26 1   
    30    13    27 1   
    31    15    28 1   
    32    16    29 1   
    33    30    32 1   
    34    31    32 1   
@<TRIPOS>SUBSTRUCTURE
     1 5RZ         1 TEMP              0 ****  ****    0 ROOT
