@<TRIPOS>MOLECULE
5S4
   60    59     1     0     0
SMALL
No Charge or Current Charge


@<TRIPOS>ATOM
      1 C10          2.5190     2.1350     0.0650 c          1 5S4       0.578100
      2 O27          2.2650     2.6510     1.1470 o          1 5S4      -0.629100
      3 C08          3.9690     1.7260    -0.3780 c3         1 5S4       0.100300
      4 O09          4.1480     1.8800    -1.8160 oh         1 5S4      -0.687000
      5 C05          4.3930     0.2780     0.0830 c3         1 5S4      -0.087000
      6 C04          5.9060     0.0660    -0.2680 c3         1 5S4       0.255600
      7 C06          4.2040     0.1400     1.6250 c3         1 5S4      -0.071600
      8 C07          3.5200    -0.8050    -0.6220 c3         1 5S4      -0.071600
      9 P02          7.9070    -1.5940     0.0420 p5         1 5S4       1.272900
     10 O03          6.3490    -1.2230     0.1770 os         1 5S4      -0.582400
     11 O01          8.7240    -0.6490     0.8510 o          1 5S4      -0.925500
     12 O29          8.1150    -2.9780     0.5500 o          1 5S4      -0.925500
     13 N11          1.5450     1.9490    -0.8940 ns         1 5S4      -0.514900
     14 C12          0.1190     2.2190    -0.7180 c3         1 5S4       0.117000
     15 C13         -0.5750     1.1110     0.0940 c3         1 5S4      -0.176400
     16 C14         -2.0690     1.3970     0.2230 c          1 5S4       0.600100
     17 O26         -2.5100     2.2670     0.9600 o          1 5S4      -0.608100
     18 N18         -6.4580     0.1690     0.7400 ns         1 5S4      -0.504900
     19 C17         -4.9910     0.1000     0.7550 c3         1 5S4       0.076000
     20 C16         -4.3540     0.6520    -0.5400 c3         1 5S4       0.081000
     21 N15         -2.8880     0.5830    -0.5270 ns         1 5S4      -0.512900
     22 N24         -9.5780    -0.3200    -1.1760 n8         1 5S4      -0.984200
     23 C20         -8.8230    -0.3560     0.1220 c3         1 5S4       0.087500
     24 C19         -7.2800    -0.6620     0.0020 c          1 5S4       0.603100
     25 O25         -6.8220    -1.5380    -0.7240 o          1 5S4      -0.594100
     26 C21         -9.5270    -1.2970     1.1500 c3         1 5S4      -0.097700
     27 C22        -10.9190    -0.7670     1.5770 c3         1 5S4      -0.091100
     28 C23         -9.6110    -2.7780     0.6960 c3         1 5S4      -0.091100
     29 H19          4.6210     2.4410     0.1430 h1         1 5S4       0.087700
     30 H20          5.1110     1.9750    -1.9930 ho         1 5S4       0.463000
     31 H11          6.0470     0.1510    -1.3540 h1         1 5S4       0.000700
     32 H21          1.8770     1.5880    -1.7830 hn         1 5S4       0.320500
     33 H23         -0.0060     3.1870    -0.2140 h1         1 5S4       0.054200
     34 H22         -0.3460     2.2920    -1.7110 h1         1 5S4       0.054200
     35 H1          -0.4130     0.1520    -0.4130 hc         1 5S4       0.064200
     36 H2          -0.1340     1.0820     1.0970 hc         1 5S4       0.064200
     37 H27         -6.9130     0.8780     1.3040 hn         1 5S4       0.311500
     38 H3          -4.6240     0.6740     1.6160 h1         1 5S4       0.066700
     39 H4          -4.6840    -0.9460     0.8940 h1         1 5S4       0.066700
     40 H25         -4.7200     0.0780    -1.4010 h1         1 5S4       0.055700
     41 H26         -4.6590     1.6980    -0.6790 h1         1 5S4       0.055700
     42 H24         -2.4310    -0.1150    -1.1030 hn         1 5S4       0.318500
     43 H5          -8.8840     0.6600     0.5360 h1         1 5S4       0.063700
     44 H6          -8.9080    -1.2840     2.0560 hc         1 5S4       0.054700
     45 H7         -11.6320    -0.7970     0.7440 hc         1 5S4       0.036033
     46 H8         -11.3280    -1.3750     2.3930 hc         1 5S4       0.036033
     47 H9         -10.8490     0.2680     1.9340 hc         1 5S4       0.036033
     48 H28         -8.6170    -3.1840     0.4800 hc         1 5S4       0.036033
     49 H29        -10.0540    -3.3950     1.4870 hc         1 5S4       0.036033
     50 H30        -10.2320    -2.8870    -0.2010 hc         1 5S4       0.036033
     51 OP3          8.3190    -1.5310    -1.3870 o          1 5S4      -0.925500
     52 H10          6.4960     0.8590     0.2090 h1         1 5S4       0.000700
     53 H12          3.1490     0.2250     1.9100 hc         1 5S4       0.030200
     54 H13          4.5500    -0.8350     1.9880 hc         1 5S4       0.030200
     55 H14          4.7660     0.9160     2.1600 hc         1 5S4       0.030200
     56 H15          3.6470    -0.7730    -1.7110 hc         1 5S4       0.030200
     57 H16          3.7930    -1.8130    -0.2860 hc         1 5S4       0.030200
     58 H17          2.4560    -0.6650    -0.3990 hc         1 5S4       0.030200
     59 H31         -9.4810    -1.2340    -1.6360 hn         1 5S4       0.404000
     60 H32        -10.5820    -0.2570    -0.9760 hn         1 5S4       0.404000
@<TRIPOS>BOND
     1     1     2 2   
     2     1     3 1   
     3     1    13 1   
     4     3     4 1   
     5     3     5 1   
     6     3    29 1   
     7     4    30 1   
     8     5     6 1   
     9     5     7 1   
    10     5     8 1   
    11     6    10 1   
    12     6    31 1   
    13     6    52 1   
    14     7    53 1   
    15     7    54 1   
    16     7    55 1   
    17     8    56 1   
    18     8    57 1   
    19     8    58 1   
    20     9    10 1   
    21     9    11 1   
    22     9    12 1   
    23     9    51 1   
    24    13    14 1   
    25    13    32 1   
    26    14    15 1   
    27    14    33 1   
    28    14    34 1   
    29    15    16 1   
    30    15    35 1   
    31    15    36 1   
    32    16    17 2   
    33    16    21 1   
    34    18    19 1   
    35    18    24 1   
    36    18    37 1   
    37    19    20 1   
    38    19    38 1   
    39    19    39 1   
    40    20    21 1   
    41    20    40 1   
    42    20    41 1   
    43    21    42 1   
    44    22    23 1   
    45    22    59 1   
    46    22    60 1   
    47    23    24 1   
    48    23    26 1   
    49    23    43 1   
    50    24    25 2   
    51    26    27 1   
    52    26    28 1   
    53    26    44 1   
    54    27    45 1   
    55    27    46 1   
    56    27    47 1   
    57    28    48 1   
    58    28    49 1   
    59    28    50 1   
@<TRIPOS>SUBSTRUCTURE
     1 5S4         1 TEMP              0 ****  ****    0 ROOT
