@<TRIPOS>MOLECULE
5S4
   60    59     1     0     0
SMALL
bcc


@<TRIPOS>ATOM
      1 C10          2.5480     1.7780     0.3650 c          1 5S4       0.645100
      2 O27          2.5080     2.4380     1.3960 o          1 5S4      -0.629100
      3 C08          3.8700     1.4940    -0.3540 c3         1 5S4       0.077100
      4 O09          3.6380     1.1040    -1.6920 oh         1 5S4      -0.624800
      5 C05          4.7850     0.5090     0.4190 c3         1 5S4      -0.087000
      6 C04          6.0470     0.2910    -0.4440 c3         1 5S4       0.232400
      7 C06          5.2090     1.1190     1.7570 c3         1 5S4      -0.071600
      8 C07          4.0800    -0.8260     0.6690 c3         1 5S4      -0.071600
      9 P02          8.2720    -1.1340    -0.6590 p5         1 5S4       1.272900
     10 O03          6.9800    -0.4810     0.2430 os         1 5S4      -0.559200
     11 O01          8.9540     0.0730    -1.2960 o          1 5S4      -0.925500
     12 O29          9.0660    -1.8190     0.4450 o          1 5S4      -0.925500
     13 N11          1.4520     1.2680    -0.2110 ns         1 5S4      -0.581900
     14 C12          0.1200     1.5250     0.2900 c3         1 5S4       0.117000
     15 C13         -0.8720     0.5770    -0.3660 c3         1 5S4      -0.176400
     16 C14         -2.2830     0.8430     0.1140 c          1 5S4       0.667100
     17 O26         -2.5220     1.1760     1.2670 o          1 5S4      -0.608100
     18 N18         -6.6920    -0.1780     0.3590 ns         1 5S4      -0.571900
     19 C17         -5.2920    -0.3880     0.0820 c3         1 5S4       0.076000
     20 C16         -4.6480     0.8580    -0.5300 c3         1 5S4       0.081000
     21 N15         -3.2440     0.6800    -0.8100 ns         1 5S4      -0.579900
     22 N24         -9.9500     0.0660    -1.1840 n8         1 5S4      -0.873800
     23 C20         -9.0770    -0.0860    -0.0390 c3         1 5S4       0.087500
     24 C19         -7.6710    -0.4090    -0.5350 c          1 5S4       0.670100
     25 O25         -7.4600    -0.8780    -1.6440 o          1 5S4      -0.594100
     26 C21         -9.5190    -1.1210     1.0270 c3         1 5S4      -0.097700
     27 C22        -10.8610    -0.7230     1.6330 c3         1 5S4      -0.091100
     28 C23         -9.5700    -2.5450     0.4840 c3         1 5S4      -0.091100
     29 H19          4.3940     2.4560    -0.3990 h1         1 5S4       0.087700
     30 H20          3.6960     0.1470    -1.7730 ho         1 5S4       0.424000
     31 H11          5.7740    -0.1960    -1.3890 h1         1 5S4       0.000700
     32 H21          1.5460     0.8750    -1.1340 hn         1 5S4       0.320500
     33 H23          0.1080     1.3880     1.3700 h1         1 5S4       0.054200
     34 H22         -0.1680     2.5630     0.0940 h1         1 5S4       0.054200
     35 H1          -0.8120     0.6570    -1.4540 hc         1 5S4       0.064200
     36 H2          -0.6160    -0.4570    -0.1120 hc         1 5S4       0.064200
     37 H27         -6.9300     0.2850     1.2210 hn         1 5S4       0.311500
     38 H3          -4.7910    -0.6440     1.0160 h1         1 5S4       0.066700
     39 H4          -5.1820    -1.2360    -0.5930 h1         1 5S4       0.066700
     40 H25         -5.1480     1.1070    -1.4660 h1         1 5S4       0.055700
     41 H26         -4.7770     1.7070     0.1430 h1         1 5S4       0.055700
     42 H24         -2.9810     0.3860    -1.7360 hn         1 5S4       0.318500
     43 H5          -9.0340     0.8860     0.4670 h1         1 5S4       0.063700
     44 H6          -8.7770    -1.0910     1.8320 hc         1 5S4       0.054700
     45 H7         -11.6710    -0.7850     0.9030 hc         1 5S4       0.036033
     46 H8         -11.1220    -1.3870     2.4580 hc         1 5S4       0.036033
     47 H9         -10.8380     0.2970     2.0220 hc         1 5S4       0.036033
     48 H28         -8.6040    -2.8850     0.1090 hc         1 5S4       0.036033
     49 H29         -9.8760    -3.2370     1.2690 hc         1 5S4       0.036033
     50 H30        -10.2970    -2.6400    -0.3260 hc         1 5S4       0.036033
     51 OP3          7.6180    -2.0780    -1.6620 o          1 5S4      -0.925500
     52 H10          6.4580     1.2790    -0.7080 h1         1 5S4       0.000700
     53 H12          4.3770     1.2180     2.4500 hc         1 5S4       0.030200
     54 H13          5.9590     0.4840     2.2250 hc         1 5S4       0.030200
     55 H14          5.6460     2.1110     1.6180 hc         1 5S4       0.030200
     56 H15          3.7370    -1.3100    -0.2500 hc         1 5S4       0.030200
     57 H16          4.7640    -1.5230     1.1520 hc         1 5S4       0.030200
     58 H17          3.2130    -0.7120     1.3220 hc         1 5S4       0.030200
     59 H31        -10.0430    -0.8110    -1.6800 hn         1 5S4       0.348800
     60 H32        -10.8780     0.3230    -0.8750 hn         1 5S4       0.348800
@<TRIPOS>BOND
     1     1     2 2   
     2     1     3 1   
     3     1    13 1   
     4     3     4 1   
     5     3     5 1   
     6     3    29 1   
     7     4    30 1   
     8     5     6 1   
     9     5     7 1   
    10     5     8 1   
    11     6    10 1   
    12     6    31 1   
    13     6    52 1   
    14     7    53 1   
    15     7    54 1   
    16     7    55 1   
    17     8    56 1   
    18     8    57 1   
    19     8    58 1   
    20     9    10 1   
    21     9    11 1   
    22     9    12 1   
    23     9    51 1   
    24    13    14 1   
    25    13    32 1   
    26    14    15 1   
    27    14    33 1   
    28    14    34 1   
    29    15    16 1   
    30    15    35 1   
    31    15    36 1   
    32    16    17 2   
    33    16    21 1   
    34    18    19 1   
    35    18    24 1   
    36    18    37 1   
    37    19    20 1   
    38    19    38 1   
    39    19    39 1   
    40    20    21 1   
    41    20    40 1   
    42    20    41 1   
    43    21    42 1   
    44    22    23 1   
    45    22    59 1   
    46    22    60 1   
    47    23    24 1   
    48    23    26 1   
    49    23    43 1   
    50    24    25 2   
    51    26    27 1   
    52    26    28 1   
    53    26    44 1   
    54    27    45 1   
    55    27    46 1   
    56    27    47 1   
    57    28    48 1   
    58    28    49 1   
    59    28    50 1   
@<TRIPOS>SUBSTRUCTURE
     1 5S4         1 TEMP              0 ****  ****    0 ROOT
