@<TRIPOS>MOLECULE
5S5
   56    58     1     0     0
SMALL
No Charge or Current Charge


@<TRIPOS>ATOM
      1 C4           4.9930     2.6940    -1.5620 ca         1 5S5      -0.111500
      2 C5           3.7650     2.0810    -1.2580 ca         1 5S5      -0.091000
      3 C6           3.2450     2.1350     0.0530 ca         1 5S5      -0.090300
      4 C7           1.9090     1.4730     0.3910 c3         1 5S5       0.165000
      5 C8           0.7240     2.1830    -0.3240 c3         1 5S5       0.140800
      6 C15          2.5350    -4.5280     0.0620 cc         1 5S5       0.168300
      7 C17          2.8030    -6.0010     0.1470 c3         1 5S5      -0.134400
      8 C20         -2.9890     1.2790    -0.4310 ca         1 5S5      -0.125300
      9 C21         -3.8220     1.6190     0.6610 ca         1 5S5      -0.035300
     10 C22         -4.9740     0.8490     0.9200 ca         1 5S5      -0.199000
     11 C24         -4.4680    -0.5980    -0.9770 ca         1 5S5      -0.108300
     12 C26         -3.5050     2.8050     1.5700 c3         1 5S5      -0.048800
     13 C3           5.7120     3.3660    -0.5590 ca         1 5S5      -0.105000
     14 C2           5.2020     3.4220     0.7490 ca         1 5S5      -0.111500
     15 C1           3.9740     2.8090     1.0540 ca         1 5S5      -0.091000
     16 C25         -3.3190     0.1720    -1.2360 ca         1 5S5      -0.053000
     17 C16          2.9940    -3.4840     0.7970 cd         1 5S5      -0.200000
     18 C23         -5.3020    -0.2580     0.1070 ca         1 5S5       0.146100
     19 C11          2.4010    -2.3190     0.2640 cd         1 5S5       0.221500
     20 C27         -4.7980    -1.7920    -1.8670 c3         1 5S5      -0.032800
     21 C29         -7.3370    -0.7630     1.4220 c3         1 5S5       0.147900
     22 C19         -1.7300     2.0740    -0.7700 c3         1 5S5       0.217100
     23 N13          1.6040    -2.6100    -0.7610 nc         1 5S5      -0.354300
     24 N9           1.9250     0.0430     0.0760 ns         1 5S5      -0.480900
     25 N18         -0.5630     1.4760    -0.1040 n7         1 5S5      -0.878400
     26 O12          3.3590    -0.6410     1.7150 o          1 5S5      -0.583100
     27 O14          1.6840    -4.0460    -0.9000 os         1 5S5      -0.065700
     28 O28         -6.4260    -1.0300     0.3410 os         1 5S5      -0.341100
     29 H1           5.3880     2.6480    -2.5740 ha         1 5S5       0.112000
     30 H2           3.2190     1.5620    -2.0420 ha         1 5S5       0.113500
     31 H3           1.7380     1.5630     1.4720 h1         1 5S5       0.053700
     32 H4           0.6640     3.2170     0.0420 h1         1 5S5       0.044700
     33 H5           0.9400     2.2300    -1.4010 h1         1 5S5       0.044700
     34 H6           1.8750    -6.5550     0.3280 hc         1 5S5       0.063033
     35 H7           3.2450    -6.3700    -0.7860 hc         1 5S5       0.063033
     36 H8           3.4980    -6.2270     0.9650 hc         1 5S5       0.063033
     37 H9          -5.6040     1.1250     1.7590 ha         1 5S5       0.114000
     38 H10         -3.6050     3.7520     1.0280 hc         1 5S5       0.040700
     39 H11         -4.1800     2.8500     2.4330 hc         1 5S5       0.040700
     40 H12         -2.4830     2.7440     1.9610 hc         1 5S5       0.040700
     41 H13          6.6620     3.8400    -0.7940 ha         1 5S5       0.111000
     42 H14          5.7580     3.9400     1.5270 ha         1 5S5       0.112000
     43 H15          3.5900     2.8580     2.0710 ha         1 5S5       0.113500
     44 H16         -2.6720    -0.0910    -2.0700 ha         1 5S5       0.119000
     45 H17          3.6830    -3.5340     1.6320 ha         1 5S5       0.169000
     46 H18         -4.8290    -2.7200    -1.2840 hc         1 5S5       0.043367
     47 H19         -5.7750    -1.6650    -2.3480 hc         1 5S5       0.043367
     48 H20         -4.0550    -1.9280    -2.6620 hc         1 5S5       0.043367
     49 H21         -6.8240    -0.8280     2.3900 h1         1 5S5       0.039700
     50 H22         -7.7780     0.2380     1.3220 h1         1 5S5       0.039700
     51 H23         -8.1530    -1.4950     1.4200 h1         1 5S5       0.039700
     52 H24         -1.5870     2.0720    -1.8590 h1         1 5S5       0.037200
     53 H25         -1.8540     3.1230    -0.4700 h1         1 5S5       0.037200
     54 H26          1.2860    -0.2870    -0.6390 hn         1 5S5       0.356500
     55 H27         -0.7580     1.4580     0.9040 hn         1 5S5       0.415000
     56 C10          2.6270    -0.9210     0.7710 c          1 5S5       0.519600
@<TRIPOS>BOND
     1     1     2 ar  
     2     1    13 ar  
     3     1    29 1   
     4     2     3 ar  
     5     2    30 1   
     6     3     4 1   
     7     3    15 ar  
     8     4     5 1   
     9     4    24 1   
    10     4    31 1   
    11     5    25 1   
    12     5    32 1   
    13     5    33 1   
    14     6     7 1   
    15     6    17 2   
    16     6    27 1   
    17     7    34 1   
    18     7    35 1   
    19     7    36 1   
    20     8     9 ar  
    21     8    16 ar  
    22     8    22 1   
    23     9    10 ar  
    24     9    12 1   
    25    10    18 ar  
    26    10    37 1   
    27    11    16 ar  
    28    11    18 ar  
    29    11    20 1   
    30    12    38 1   
    31    12    39 1   
    32    12    40 1   
    33    13    14 ar  
    34    13    41 1   
    35    14    15 ar  
    36    14    42 1   
    37    15    43 1   
    38    16    44 1   
    39    17    19 1   
    40    17    45 1   
    41    18    28 1   
    42    19    23 2   
    43    19    56 1   
    44    20    46 1   
    45    20    47 1   
    46    20    48 1   
    47    21    28 1   
    48    21    49 1   
    49    21    50 1   
    50    21    51 1   
    51    22    25 1   
    52    22    52 1   
    53    22    53 1   
    54    23    27 1   
    55    24    54 1   
    56    24    56 1   
    57    25    55 1   
    58    26    56 2   
@<TRIPOS>SUBSTRUCTURE
     1 5S5         1 TEMP              0 ****  ****    0 ROOT
