@<TRIPOS>MOLECULE
5S5
   56    58     1     0     0
SMALL
bcc


@<TRIPOS>ATOM
      1 C4           4.9520     2.4780    -1.4830 ca         1 5S5      -0.129500
      2 C5           3.7930     1.8220    -1.0950 ca         1 5S5      -0.109000
      3 C6           3.2160     2.0800     0.1440 ca         1 5S5      -0.090300
      4 C7           1.9150     1.4280     0.5490 c3         1 5S5       0.165000
      5 C8           0.7460     2.1610    -0.1170 c3         1 5S5       0.140800
      6 C15          2.3510    -4.4570    -0.0190 cc         1 5S5       0.278000
      7 C17          2.5230    -5.9240    -0.0860 c3         1 5S5      -0.134400
      8 C20         -2.8810     1.2560    -0.3580 ca         1 5S5      -0.125300
      9 C21         -3.7830     1.6470     0.6290 ca         1 5S5      -0.035300
     10 C22         -4.9210     0.8700     0.8540 ca         1 5S5      -0.217000
     11 C24         -4.2610    -0.6940    -0.8720 ca         1 5S5      -0.108300
     12 C26         -3.5690     2.8840     1.4570 c3         1 5S5      -0.048800
     13 C3           5.5470     3.4060    -0.6360 ca         1 5S5      -0.123000
     14 C2           4.9740     3.6710     0.6000 ca         1 5S5      -0.129500
     15 C1           3.8150     3.0090     0.9860 ca         1 5S5      -0.109000
     16 C25         -3.1390     0.0910    -1.0780 ca         1 5S5      -0.071000
     17 C16          3.0520    -3.4640     0.5820 cd         1 5S5      -0.348600
     18 C23         -5.1650    -0.2830     0.1170 ca         1 5S5       0.146100
     19 C11          2.3370    -2.2970     0.2300 cd         1 5S5       0.286800
     20 C27         -4.5090    -1.9360    -1.6750 c3         1 5S5      -0.032800
     21 C29         -7.2170    -0.6920     1.2450 c3         1 5S5       0.124700
     22 C19         -1.6170     2.0230    -0.6350 c3         1 5S5       0.217100
     23 N13          1.3050    -2.5760    -0.5120 nc         1 5S5      -0.354300
     24 N9           1.8330     0.0370     0.1640 ns         1 5S5      -0.547900
     25 N18         -0.4970     1.4550     0.1050 n7         1 5S5      -0.823200
     26 O12          3.6360    -0.6810     1.3370 o          1 5S5      -0.583100
     27 O14          1.3090    -3.9180    -0.6690 os         1 5S5      -0.110100
     28 O28         -6.2500    -1.0680     0.2870 os         1 5S5      -0.317900
     29 H1           5.3930     2.2650    -2.4480 ha         1 5S5       0.130000
     30 H2           3.3390     1.0980    -1.7620 ha         1 5S5       0.131500
     31 H3           1.8050     1.5150     1.6370 h1         1 5S5       0.053700
     32 H4           0.7410     3.1990     0.2440 h1         1 5S5       0.044700
     33 H5           0.9220     2.2050    -1.1960 h1         1 5S5       0.044700
     34 H6           1.6390    -6.4440     0.2850 hc         1 5S5       0.063033
     35 H7           2.6990    -6.2540    -1.1100 hc         1 5S5       0.063033
     36 H8           3.3750    -6.2220     0.5190 hc         1 5S5       0.063033
     37 H9          -5.6150     1.1900     1.6210 ha         1 5S5       0.132000
     38 H10         -3.5740     3.7870     0.8450 hc         1 5S5       0.040700
     39 H11         -4.3510     2.9930     2.2070 hc         1 5S5       0.040700
     40 H12         -2.6140     2.8630     1.9860 hc         1 5S5       0.040700
     41 H13          6.4530     3.9170    -0.9380 ha         1 5S5       0.129000
     42 H14          5.4310     4.3900     1.2680 ha         1 5S5       0.130000
     43 H15          3.3770     3.2160     1.9560 ha         1 5S5       0.131500
     44 H16         -2.4310    -0.2140    -1.8420 ha         1 5S5       0.137000
     45 H17          3.9390    -3.5500     1.1840 ha         1 5S5       0.187000
     46 H18         -4.5470    -2.8280    -1.0470 hc         1 5S5       0.043367
     47 H19         -5.4540    -1.8890    -2.2180 hc         1 5S5       0.043367
     48 H20         -3.7160    -2.0810    -2.4080 hc         1 5S5       0.043367
     49 H21         -6.8060    -0.6730     2.2580 h1         1 5S5       0.039700
     50 H22         -7.6520     0.2870     1.0250 h1         1 5S5       0.039700
     51 H23         -8.0040    -1.4420     1.2010 h1         1 5S5       0.039700
     52 H24         -1.3780     1.9570    -1.7000 h1         1 5S5       0.037200
     53 H25         -1.7580     3.0910    -0.4200 h1         1 5S5       0.037200
     54 H26          0.9550    -0.2470    -0.2530 hn         1 5S5       0.356500
     55 H27         -0.7140     1.4540     1.0960 hn         1 5S5       0.359800
     56 C10          2.6640    -0.9000     0.6340 c          1 5S5       0.586600
@<TRIPOS>BOND
     1     1     2 ar  
     2     1    13 ar  
     3     1    29 1   
     4     2     3 ar  
     5     2    30 1   
     6     3     4 1   
     7     3    15 ar  
     8     4     5 1   
     9     4    24 1   
    10     4    31 1   
    11     5    25 1   
    12     5    32 1   
    13     5    33 1   
    14     6     7 1   
    15     6    17 2   
    16     6    27 1   
    17     7    34 1   
    18     7    35 1   
    19     7    36 1   
    20     8     9 ar  
    21     8    16 ar  
    22     8    22 1   
    23     9    10 ar  
    24     9    12 1   
    25    10    18 ar  
    26    10    37 1   
    27    11    16 ar  
    28    11    18 ar  
    29    11    20 1   
    30    12    38 1   
    31    12    39 1   
    32    12    40 1   
    33    13    14 ar  
    34    13    41 1   
    35    14    15 ar  
    36    14    42 1   
    37    15    43 1   
    38    16    44 1   
    39    17    19 1   
    40    17    45 1   
    41    18    28 1   
    42    19    23 2   
    43    19    56 1   
    44    20    46 1   
    45    20    47 1   
    46    20    48 1   
    47    21    28 1   
    48    21    49 1   
    49    21    50 1   
    50    21    51 1   
    51    22    25 1   
    52    22    52 1   
    53    22    53 1   
    54    23    27 1   
    55    24    54 1   
    56    24    56 1   
    57    25    55 1   
    58    26    56 2   
@<TRIPOS>SUBSTRUCTURE
     1 5S5         1 TEMP              0 ****  ****    0 ROOT
