@<TRIPOS>MOLECULE
5S6
   62    64     1     0     0
SMALL
bcc


@<TRIPOS>ATOM
      1 C8           6.4770    -1.6950    -0.1480 cg         1 5S6      -0.098000
      2 C9           7.6380    -2.0110    -0.0850 c1         1 5S6      -0.125100
      3 C23          4.2950    -1.7990    -1.2620 ca         1 5S6      -0.104500
      4 C24          4.5410    -0.4730     0.7310 ca         1 5S6      -0.104500
      5 C21          2.9630    -1.4310    -1.3330 ca         1 5S6      -0.117000
      6 C20          3.2050    -0.1140     0.6530 ca         1 5S6      -0.117000
      7 C13         -4.4140    -1.2020     1.4820 ca         1 5S6      -0.089000
      8 C11         -5.4530    -2.0470    -0.9110 ca         1 5S6      -0.219000
      9 C4           0.6320     4.7490    -0.8530 cc         1 5S6      -0.346600
     10 C19          5.1020    -1.3220    -0.2260 ca         1 5S6       0.032000
     11 C18          2.4010    -0.5880    -0.3800 ca         1 5S6      -0.095300
     12 C12         -3.5720    -1.8380     0.5730 ca         1 5S6      -0.126300
     13 C14         -5.7600    -0.9730     1.2360 ca         1 5S6      -0.113300
     14 C15         -4.1020    -2.2640    -0.6460 ca         1 5S6      -0.009300
     15 C10         -6.2770    -1.4090     0.0100 ca         1 5S6       0.147100
     16 C1           0.5470     3.4870    -0.2230 cc         1 5S6       0.289800
     17 C7           0.2750     5.6150     0.1260 cd         1 5S6       0.282000
     18 C32         -6.6330    -0.2780     2.2370 c3         1 5S6      -0.030800
     19 C30         -3.2500    -2.9670    -1.6630 c3         1 5S6      -0.052800
     20 C31          0.1420     7.0870     0.1820 c3         1 5S6      -0.135400
     21 C33         -8.1730    -1.5720    -1.4150 c3         1 5S6       0.125700
     22 C27          9.0440    -2.3890    -0.0170 c3         1 5S6       0.229500
     23 C26         -2.1150    -2.0150     0.8980 c3         1 5S6       0.214100
     24 C28          0.1120    -1.2240     0.3940 c3         1 5S6       0.149800
     25 C16          0.9290    -0.2510    -0.4540 c3         1 5S6       0.159000
     26 N2           0.1750     3.6000     1.0200 nd         1 5S6      -0.368300
     27 N5           0.6480     1.1050    -0.0340 ns         1 5S6      -0.559900
     28 O17          1.2130     2.0930    -1.9940 o          1 5S6      -0.576100
     29 O6           0.0050     4.9210     1.2420 os         1 5S6      -0.106100
     30 O29          9.2640    -3.1390     1.1550 oh         1 5S6      -0.585800
     31 O25         -7.5890    -1.1690    -0.1940 os         1 5S6      -0.319900
     32 H1           4.7180    -2.4520    -2.0140 ha         1 5S6       0.139500
     33 H2           5.1540    -0.0920     1.5370 ha         1 5S6       0.139500
     34 H3           2.3520    -1.8070    -2.1450 ha         1 5S6       0.134500
     35 H4           2.7960     0.5500     1.4040 ha         1 5S6       0.134500
     36 H5          -4.0010    -0.8680     2.4280 ha         1 5S6       0.126000
     37 H6          -5.8490    -2.3920    -1.8580 ha         1 5S6       0.133000
     38 H7           0.9060     4.9740    -1.8690 ha         1 5S6       0.189000
     39 H8          -7.0280     0.6630     1.8480 hc         1 5S6       0.041033
     40 H9          -7.4930    -0.8860     2.5250 hc         1 5S6       0.041033
     41 H10         -6.0730    -0.0500     3.1430 hc         1 5S6       0.041033
     42 H11         -2.9160    -3.9400    -1.2960 hc         1 5S6       0.047033
     43 H12         -3.7970    -3.1380    -2.5890 hc         1 5S6       0.047033
     44 H13         -2.3540    -2.3910    -1.8950 hc         1 5S6       0.047033
     45 H14          0.8010     7.5130     0.9390 hc         1 5S6       0.064700
     46 H15          0.4050     7.5160    -0.7820 hc         1 5S6       0.064700
     47 H16         -0.8790     7.3830     0.4230 hc         1 5S6       0.064700
     48 H17         -8.1180    -2.6540    -1.5600 h1         1 5S6       0.039700
     49 H18         -9.2200    -1.2800    -1.3690 h1         1 5S6       0.039700
     50 H19         -7.7090    -1.0790    -2.2740 h1         1 5S6       0.039700
     51 H20          9.2960    -2.9550    -0.9220 h1         1 5S6       0.035200
     52 H21          9.6540    -1.4760    -0.0410 h1         1 5S6       0.035200
     53 H22         -1.9720    -1.9460     1.9860 h1         1 5S6       0.034200
     54 H23         -1.7810    -3.0180     0.6130 h1         1 5S6       0.034200
     55 H24          0.3900    -2.2380     0.0970 h1         1 5S6       0.040200
     56 H25          0.4090    -1.1190     1.4520 h1         1 5S6       0.040200
     57 H26          0.5980    -0.3590    -1.4900 h1         1 5S6       0.095700
     58 H27          0.3960     1.2730     0.9290 hn         1 5S6       0.330500
     59 H28         -1.5880    -0.1200     0.4470 hn         1 5S6       0.361800
     60 H30         10.1880    -3.4100     1.1570 ho         1 5S6       0.407000
     61 N22         -1.3050    -1.0520     0.1670 n7         1 5S6      -0.808200
     62 C3           0.8380     2.1630    -0.8360 c          1 5S6       0.594600
@<TRIPOS>BOND
     1     1     2 3   
     2     1    10 1   
     3     2    22 1   
     4     3     5 ar  
     5     3    10 ar  
     6     3    32 1   
     7     4     6 ar  
     8     4    10 ar  
     9     4    33 1   
    10     5    11 ar  
    11     5    34 1   
    12     6    11 ar  
    13     6    35 1   
    14     7    12 ar  
    15     7    13 ar  
    16     7    36 1   
    17     8    14 ar  
    18     8    15 ar  
    19     8    37 1   
    20     9    16 1   
    21     9    17 2   
    22     9    38 1   
    23    11    25 1   
    24    12    14 ar  
    25    12    23 1   
    26    13    15 ar  
    27    13    18 1   
    28    14    19 1   
    29    15    31 1   
    30    16    26 2   
    31    16    62 1   
    32    17    20 1   
    33    17    29 1   
    34    18    39 1   
    35    18    40 1   
    36    18    41 1   
    37    19    42 1   
    38    19    43 1   
    39    19    44 1   
    40    20    45 1   
    41    20    46 1   
    42    20    47 1   
    43    21    31 1   
    44    21    48 1   
    45    21    49 1   
    46    21    50 1   
    47    22    30 1   
    48    22    51 1   
    49    22    52 1   
    50    23    53 1   
    51    23    54 1   
    52    23    61 1   
    53    24    25 1   
    54    24    55 1   
    55    24    56 1   
    56    24    61 1   
    57    25    27 1   
    58    25    57 1   
    59    26    29 1   
    60    27    58 1   
    61    27    62 1   
    62    28    62 2   
    63    30    60 1   
    64    59    61 1   
@<TRIPOS>SUBSTRUCTURE
     1 5S6         1 TEMP              0 ****  ****    0 ROOT
