@<TRIPOS>MOLECULE
5S6
   62    64     1     0     0
SMALL
No Charge or Current Charge


@<TRIPOS>ATOM
      1 C8           6.8380    -1.7410    -0.0260 cg         1 5S6      -0.098000
      2 C9           8.0220    -1.9940     0.0770 c1         1 5S6      -0.125100
      3 C23          4.8520    -1.3090    -1.4170 ca         1 5S6      -0.086500
      4 C24          4.6570    -1.2520     1.0060 ca         1 5S6      -0.086500
      5 C21          3.4840    -1.0070    -1.5340 ca         1 5S6      -0.099000
      6 C20          3.2880    -0.9500     0.8890 ca         1 5S6      -0.099000
      7 C13         -4.1310    -0.7770     1.2710 ca         1 5S6      -0.071000
      8 C11         -5.5640    -1.8580    -0.8800 ca         1 5S6      -0.201000
      9 C4          -0.4960     4.2680    -0.6650 cc         1 5S6      -0.198000
     10 C19          5.4420    -1.4330    -0.1460 ca         1 5S6       0.032000
     11 C18          2.6900    -0.8290    -0.3840 ca         1 5S6      -0.095300
     12 C12         -3.5100    -1.7210     0.4290 ca         1 5S6      -0.126300
     13 C14         -5.4590    -0.3690     1.0490 ca         1 5S6      -0.113300
     14 C15         -4.2330    -2.2650    -0.6590 ca         1 5S6      -0.009300
     15 C10         -6.1820    -0.9130    -0.0330 ca         1 5S6       0.147100
     16 C1           0.1660     3.1640    -0.0880 cc         1 5S6       0.224500
     17 C7          -0.4040     5.2600     0.2510 cd         1 5S6       0.172300
     18 C32         -6.1030     0.6550     1.9780 c3         1 5S6      -0.030800
     19 C30         -3.6030    -3.2850    -1.6030 c3         1 5S6      -0.052800
     20 C31         -0.9120     6.6720     0.2220 c3         1 5S6      -0.135400
     21 C33         -8.3040    -0.9930    -1.3030 c3         1 5S6       0.148900
     22 C27          9.4570    -2.2870     0.1550 c3         1 5S6       0.252700
     23 C26         -2.0680    -2.1250     0.7230 c3         1 5S6       0.214100
     24 C28          0.2990    -1.5140     0.2250 c3         1 5S6       0.149800
     25 C16          1.2050    -0.4960    -0.5260 c3         1 5S6       0.159000
     26 N2           0.6510     3.4340     1.1230 nd         1 5S6      -0.368300
     27 N5           0.9610     0.8840    -0.0830 ns         1 5S6      -0.492900
     28 O17         -0.1750     1.6270    -1.9190 o          1 5S6      -0.576100
     29 O6           0.2790     4.8100     1.3500 os         1 5S6      -0.061700
     30 O29          9.8050    -2.7200     1.4740 oh         1 5S6      -0.648000
     31 O25         -7.4870    -0.4970    -0.2280 os         1 5S6      -0.343100
     32 H1           5.4530    -1.4440    -2.3140 ha         1 5S6       0.121500
     33 H2           5.1050    -1.3430     1.9930 ha         1 5S6       0.121500
     34 H3           3.0440    -0.9110    -2.5250 ha         1 5S6       0.116500
     35 H4           2.6980    -0.8070     1.7910 ha         1 5S6       0.116500
     36 H5          -3.5730    -0.3570     2.1060 ha         1 5S6       0.108000
     37 H6          -6.1050    -2.2870    -1.7180 ha         1 5S6       0.115000
     38 H7          -0.9720     4.2970    -1.6390 ha         1 5S6       0.171000
     39 H8          -6.4160     1.5470     1.4220 hc         1 5S6       0.041033
     40 H9          -6.9910     0.2370     2.4670 hc         1 5S6       0.041033
     41 H10         -5.4160     0.9820     2.7660 hc         1 5S6       0.041033
     42 H11         -3.4060    -4.2300    -1.0850 hc         1 5S6       0.047033
     43 H12         -4.2540    -3.5090    -2.4570 hc         1 5S6       0.047033
     44 H13         -2.6540    -2.9160    -2.0090 hc         1 5S6       0.047033
     45 H14         -0.0850     7.3860     0.3150 hc         1 5S6       0.064700
     46 H15         -1.4370     6.8840    -0.7170 hc         1 5S6       0.064700
     47 H16         -1.6100     6.8530     1.0470 hc         1 5S6       0.064700
     48 H17         -8.4330    -2.0800    -1.2250 h1         1 5S6       0.039700
     49 H18         -9.2980    -0.5300    -1.2690 h1         1 5S6       0.039700
     50 H19         -7.8540    -0.7590    -2.2760 h1         1 5S6       0.039700
     51 H20          9.6980    -3.0650    -0.5820 h1         1 5S6       0.035200
     52 H21         10.0170    -1.3820    -0.1140 h1         1 5S6       0.035200
     53 H22         -1.8830    -2.0220     1.8010 h1         1 5S6       0.034200
     54 H23         -1.9130    -3.1830     0.4740 h1         1 5S6       0.034200
     55 H24          0.5720    -2.5290    -0.0950 h1         1 5S6       0.040200
     56 H25          0.5050    -1.4440     1.3020 h1         1 5S6       0.040200
     57 H26          0.9470    -0.5730    -1.5910 h1         1 5S6       0.095700
     58 H27          1.3150     1.1690     0.8230 hn         1 5S6       0.330500
     59 H28         -1.3440    -0.2970     0.2100 hn         1 5S6       0.417000
     60 H30         10.7710    -2.9010     1.4610 ho         1 5S6       0.446000
     61 N22         -1.1380    -1.2720    -0.0330 n7         1 5S6      -0.863400
     62 C3           0.2800     1.8500    -0.8020 c          1 5S6       0.527600
@<TRIPOS>BOND
     1     1     2 3   
     2     1    10 1   
     3     2    22 1   
     4     3     5 ar  
     5     3    10 ar  
     6     3    32 1   
     7     4     6 ar  
     8     4    10 ar  
     9     4    33 1   
    10     5    11 ar  
    11     5    34 1   
    12     6    11 ar  
    13     6    35 1   
    14     7    12 ar  
    15     7    13 ar  
    16     7    36 1   
    17     8    14 ar  
    18     8    15 ar  
    19     8    37 1   
    20     9    16 1   
    21     9    17 2   
    22     9    38 1   
    23    11    25 1   
    24    12    14 ar  
    25    12    23 1   
    26    13    15 ar  
    27    13    18 1   
    28    14    19 1   
    29    15    31 1   
    30    16    26 2   
    31    16    62 1   
    32    17    20 1   
    33    17    29 1   
    34    18    39 1   
    35    18    40 1   
    36    18    41 1   
    37    19    42 1   
    38    19    43 1   
    39    19    44 1   
    40    20    45 1   
    41    20    46 1   
    42    20    47 1   
    43    21    31 1   
    44    21    48 1   
    45    21    49 1   
    46    21    50 1   
    47    22    30 1   
    48    22    51 1   
    49    22    52 1   
    50    23    53 1   
    51    23    54 1   
    52    23    61 1   
    53    24    25 1   
    54    24    55 1   
    55    24    56 1   
    56    24    61 1   
    57    25    27 1   
    58    25    57 1   
    59    26    29 1   
    60    27    58 1   
    61    27    62 1   
    62    28    62 2   
    63    30    60 1   
    64    59    61 1   
@<TRIPOS>SUBSTRUCTURE
     1 5S6         1 TEMP              0 ****  ****    0 ROOT
