@<TRIPOS>MOLECULE
5S7
   37    39     1     0     0
SMALL
bcc


@<TRIPOS>ATOM
      1 C2          -3.7820     0.6290    -0.6610 ca         1 5S7       0.949900
      2 C4          -1.7330    -0.0650    -0.2370 ca         1 5S7       0.509800
      3 C5          -2.1550    -1.3470     0.0750 ca         1 5S7      -0.274200
      4 C6          -3.5420    -1.5710    -0.0080 ca         1 5S7       0.811200
      5 C8          -0.0530    -1.3740     0.2960 cc         1 5S7       0.398700
      6 O3           2.2780     3.3560    -0.0900 oh         1 5S7      -0.579800
      7 C3           2.3980     2.1590     0.6310 c5         1 5S7       0.087100
      8 C9           2.8540     1.0570    -0.3170 c5         1 5S7       0.156100
      9 C10          3.5700    -0.0670     0.4150 c3         1 5S7      -0.027300
     10 S5           3.7310    -1.5140    -0.6650 ss         1 5S7      -0.281200
     11 CS           4.8800    -2.4840     0.3350 c3         1 5S7      -0.023000
     12 C7           1.0220     1.6280     1.0450 c5         1 5S7       0.055100
     13 O2           0.1240     2.6010     1.4870 oh         1 5S7      -0.568800
     14 C1           0.5220     1.0190    -0.2690 c5         1 5S7       0.268800
     15 O4           1.6630     0.5870    -0.9540 os         1 5S7      -0.385600
     16 N9          -0.3760    -0.0940    -0.0890 na         1 5S7      -0.272000
     17 N7          -1.0880    -2.1500     0.4020 nd         1 5S7      -0.547100
     18 N3          -2.4920     0.9590    -0.6070 nb         1 5S7      -0.810000
     19 N1          -4.3300    -0.5640    -0.3770 nb         1 5S7      -0.883000
     20 N6          -4.0910    -2.7600     0.2610 nv         1 5S7      -0.958500
     21 N2          -4.6440     1.5890    -1.0810 nv         1 5S7      -0.937500
     22 H1           0.9720    -1.6800     0.4500 h5         1 5S7       0.075800
     23 H2           1.6480     3.9210     0.3740 ho         1 5S7       0.424000
     24 H3           3.0760     2.2600     1.4880 h1         1 5S7       0.054700
     25 H4           3.5140     1.4510    -1.0950 h1         1 5S7       0.107700
     26 H5           4.5650     0.2830     0.6960 h1         1 5S7       0.060700
     27 H6           3.0520    -0.3550     1.3340 h1         1 5S7       0.060700
     28 H7           4.4440    -2.7350     1.3010 h1         1 5S7       0.061033
     29 H8           5.0870    -3.4060    -0.2030 h1         1 5S7       0.061033
     30 H9           5.8160    -1.9490     0.4890 h1         1 5S7       0.061033
     31 H10          1.1530     0.8340     1.7910 h1         1 5S7       0.054700
     32 H11          0.2900     2.7760     2.4190 ho         1 5S7       0.413000
     33 H12         -0.0320     1.7680    -0.8450 h2         1 5S7       0.122700
     34 H13         -3.5330    -3.5160     0.6160 hn         1 5S7       0.448800
     35 H14         -5.0900    -2.8700     0.2520 hn         1 5S7       0.448800
     36 H15         -5.6220     1.4490    -0.8940 hn         1 5S7       0.429300
     37 H16         -4.3260     2.5430    -1.0490 hn         1 5S7       0.429300
@<TRIPOS>BOND
     1     1    18 ar  
     2     1    19 ar  
     3     1    21 1   
     4     2     3 ar  
     5     2    16 1   
     6     2    18 ar  
     7     3     4 ar  
     8     3    17 1   
     9     4    19 ar  
    10     4    20 1   
    11     5    16 1   
    12     5    17 2   
    13     5    22 1   
    14     6     7 1   
    15     6    23 1   
    16     7     8 1   
    17     7    12 1   
    18     7    24 1   
    19     8     9 1   
    20     8    15 1   
    21     8    25 1   
    22     9    10 1   
    23     9    26 1   
    24     9    27 1   
    25    10    11 1   
    26    11    28 1   
    27    11    29 1   
    28    11    30 1   
    29    12    13 1   
    30    12    14 1   
    31    12    31 1   
    32    13    32 1   
    33    14    15 1   
    34    14    16 1   
    35    14    33 1   
    36    20    34 1   
    37    20    35 1   
    38    21    36 1   
    39    21    37 1   
@<TRIPOS>SUBSTRUCTURE
     1 5S7         1 TEMP              0 ****  ****    0 ROOT
