@<TRIPOS>MOLECULE
5S7
   37    39     1     0     0
SMALL
No Charge or Current Charge


@<TRIPOS>ATOM
      1 C2          -3.5010     0.1350    -1.2810 ca         1 5S7       0.423900
      2 C4          -1.5950    -0.0220    -0.0540 ca         1 5S7       0.181500
      3 C5          -2.0370    -1.2100     0.4680 ca         1 5S7      -0.143600
      4 C6          -3.2910    -1.6910     0.0420 ca         1 5S7       0.482900
      5 C8          -0.1230    -0.8670     1.3880 cc         1 5S7       0.398700
      6 O3           2.4290     3.6920     0.2260 oh         1 5S7      -0.702000
      7 C3           2.6500     2.3630     0.7150 c5         1 5S7       0.110300
      8 C9           2.7320     1.2880    -0.4160 c5         1 5S7       0.179300
      9 C10          3.3380    -0.0710     0.0330 c3         1 5S7       0.020600
     10 S5           3.4170    -1.3150    -1.3380 ss         1 5S7      -0.377000
     11 CS           4.1160    -2.7580    -0.4170 c3         1 5S7       0.024900
     12 C7           1.3920     1.8670     1.4840 c5         1 5S7       0.078300
     13 O2           0.8180     2.9360     2.2650 oh         1 5S7      -0.691000
     14 C1           0.4780     1.3700     0.2970 c5         1 5S7       0.321300
     15 O4           1.3540     1.1080    -0.8260 os         1 5S7      -0.432000
     16 N9          -0.3800     0.2050     0.5240 na         1 5S7      -0.301300
     17 N7          -1.1310    -1.7600     1.3800 nd         1 5S7      -0.547100
     18 N3          -2.3200     0.6840    -0.9430 nb         1 5S7      -0.284000
     19 N1          -4.0370    -1.0130    -0.8390 nb         1 5S7      -0.357000
     20 N6          -3.8210    -2.8530     0.5020 nv         1 5S7      -1.068900
     21 N2          -4.2490     0.8260    -2.1680 nv         1 5S7      -1.047900
     22 H1           0.7820    -0.9450     1.9780 h5         1 5S7       0.075800
     23 H2           1.7900     4.0690     0.8830 ho         1 5S7       0.523000
     24 H3           3.5430     2.3390     1.3550 h1         1 5S7       0.054700
     25 H4           3.3180     1.6580    -1.2690 h1         1 5S7       0.107700
     26 H5           4.3570     0.1030     0.4020 h1         1 5S7       0.060700
     27 H6           2.7510    -0.4950     0.8550 h1         1 5S7       0.060700
     28 H7           3.4390    -3.0440     0.3980 h1         1 5S7       0.061033
     29 H8           4.2350    -3.6100    -1.0990 h1         1 5S7       0.061033
     30 H9           5.0950    -2.4950     0.0020 h1         1 5S7       0.061033
     31 H10          1.6750     1.0350     2.1420 h1         1 5S7       0.054700
     32 H11          0.1850     2.5350     2.9100 ho         1 5S7       0.512000
     33 H12         -0.2020     2.1850     0.0160 h2         1 5S7       0.122700
     34 H13         -3.3820    -3.2510     1.3280 hn         1 5S7       0.504000
     35 H14         -4.8230    -2.9880     0.4080 hn         1 5S7       0.504000
     36 H15         -5.2260     0.5660    -2.2750 hn         1 5S7       0.484500
     37 H16         -4.0050     1.7940    -2.3600 hn         1 5S7       0.484500
@<TRIPOS>BOND
     1     1    18 ar  
     2     1    19 ar  
     3     1    21 1   
     4     2     3 ar  
     5     2    16 1   
     6     2    18 ar  
     7     3     4 ar  
     8     3    17 1   
     9     4    19 ar  
    10     4    20 1   
    11     5    16 1   
    12     5    17 2   
    13     5    22 1   
    14     6     7 1   
    15     6    23 1   
    16     7     8 1   
    17     7    12 1   
    18     7    24 1   
    19     8     9 1   
    20     8    15 1   
    21     8    25 1   
    22     9    10 1   
    23     9    26 1   
    24     9    27 1   
    25    10    11 1   
    26    11    28 1   
    27    11    29 1   
    28    11    30 1   
    29    12    13 1   
    30    12    14 1   
    31    12    31 1   
    32    13    32 1   
    33    14    15 1   
    34    14    16 1   
    35    14    33 1   
    36    20    34 1   
    37    20    35 1   
    38    21    36 1   
    39    21    37 1   
@<TRIPOS>SUBSTRUCTURE
     1 5S7         1 TEMP              0 ****  ****    0 ROOT
