@<TRIPOS>MOLECULE
5S9
   26    27     1     0     0
SMALL
No Charge or Current Charge


@<TRIPOS>ATOM
      1 FAD          1.2980    -0.3760     2.3260 f          1 5S9      -0.158000
      2 CAN          1.9140    -0.0990     1.1550 ca         1 5S9       0.213000
      3 CAI          3.3170    -0.0650     1.1300 ca         1 5S9      -0.190000
      4 CAM          3.9870     0.1500    -0.0810 ca         1 5S9       0.198000
      5 FAC          5.3370     0.1810    -0.1050 f          1 5S9      -0.168000
      6 CAG          3.2640     0.3170    -1.2710 ca         1 5S9      -0.158000
      7 CAH          1.8580     0.2800    -1.2510 ca         1 5S9      -0.078000
      8 CAO          1.1700     0.0910    -0.0360 ca         1 5S9      -0.107000
      9 NAK         -0.2520     0.0590    -0.0730 ns         1 5S9      -0.161000
     10 CAL         -1.1930     0.5820     0.8030 c          1 5S9       0.643700
     11 OAB         -0.8950     1.2930     1.7550 o          1 5S9      -0.546100
     12 CAP         -2.6040     0.2390     0.4750 cc         1 5S9      -0.229600
     13 CAF         -3.6780     0.6810     1.2030 cd         1 5S9      -0.158000
     14 CAE         -4.8440     0.1660     0.6100 cd         1 5S9       0.228900
     15 NAJ         -4.5820    -0.5770    -0.4460 nc         1 5S9      -0.508800
     16 NAQ         -3.2020    -0.5350    -0.5310 na         1 5S9       0.145800
     17 CAA         -2.5390    -1.2790    -1.6170 c3         1 5S9       0.063900
     18 H1           3.8810    -0.2170     2.0450 ha         1 5S9       0.154000
     19 H2           3.7930     0.4730    -2.2070 ha         1 5S9       0.140000
     20 H3           1.3050     0.4120    -2.1790 ha         1 5S9       0.124000
     21 H4          -0.6370    -0.4340    -0.8650 hn         1 5S9       0.161000
     22 H5          -3.6460     1.3170     2.0820 ha         1 5S9       0.159000
     23 H6          -5.8710     0.3120     0.9200 h4         1 5S9       0.043100
     24 H7          -1.9940    -0.5800    -2.2630 h1         1 5S9       0.062033
     25 H8          -1.8440    -2.0130    -1.1900 h1         1 5S9       0.062033
     26 H9          -3.2860    -1.8090    -2.2200 h1         1 5S9       0.062033
@<TRIPOS>BOND
     1     1     2 1   
     2     2     3 ar  
     3     2     8 ar  
     4     3     4 ar  
     5     3    18 1   
     6     4     5 1   
     7     4     6 ar  
     8     6     7 ar  
     9     6    19 1   
    10     7     8 ar  
    11     7    20 1   
    12     8     9 1   
    13     9    10 1   
    14     9    21 1   
    15    10    11 2   
    16    10    12 1   
    17    12    13 2   
    18    12    16 1   
    19    13    14 1   
    20    13    22 1   
    21    14    15 2   
    22    14    23 1   
    23    15    16 1   
    24    16    17 1   
    25    17    24 1   
    26    17    25 1   
    27    17    26 1   
@<TRIPOS>SUBSTRUCTURE
     1 5S9         1 TEMP              0 ****  ****    0 ROOT
