@<TRIPOS>MOLECULE
5S9
   26    27     1     0     0
SMALL
bcc


@<TRIPOS>ATOM
      1 FAD          1.1070    -1.3810     1.5420 f          1 5S9      -0.122900
      2 CAN          1.8030    -0.5870     0.7270 ca         1 5S9       0.177900
      3 CAI          3.1740    -0.5240     0.8720 ca         1 5S9      -0.208000
      4 CAM          3.8750     0.2760    -0.0110 ca         1 5S9       0.162900
      5 FAC          5.2050     0.3450     0.1130 f          1 5S9      -0.132900
      6 CAG          3.2520     0.9980    -1.0100 ca         1 5S9      -0.176000
      7 CAH          1.8710     0.9290    -1.1090 ca         1 5S9      -0.096000
      8 CAO          1.1250     0.1380    -0.2450 ca         1 5S9      -0.014400
      9 NAK         -0.2720     0.0470    -0.3630 ns         1 5S9      -0.487100
     10 CAL         -1.1050     0.4440     0.6320 c          1 5S9       0.710700
     11 OAB         -0.7090     0.9330     1.6720 o          1 5S9      -0.546100
     12 CAP         -2.5520     0.2810     0.3770 cc         1 5S9      -0.178900
     13 CAF         -3.5540     1.1270     0.8020 cd         1 5S9      -0.241300
     14 CAE         -4.7270     0.5500     0.3090 cd         1 5S9       0.294200
     15 NAJ         -4.4680    -0.5690    -0.3470 nc         1 5S9      -0.508800
     16 NAQ         -3.1540    -0.7240    -0.3060 na         1 5S9       0.124400
     17 CAA         -2.5670    -1.9050    -0.9040 c3         1 5S9       0.034600
     18 H1           3.6780    -1.0910     1.6430 ha         1 5S9       0.172000
     19 H2           3.8280     1.6110    -1.6890 ha         1 5S9       0.158000
     20 H3           1.3610     1.4970    -1.8760 ha         1 5S9       0.142000
     21 H4          -0.6450    -0.1130    -1.2870 hn         1 5S9       0.327500
     22 H5          -3.4420     2.0330     1.3730 ha         1 5S9       0.177000
     23 H6          -5.7430     0.8990     0.4110 h4         1 5S9       0.043100
     24 H7          -2.2270    -1.7100    -1.9200 h1         1 5S9       0.062033
     25 H8          -1.7310    -2.2580    -0.3050 h1         1 5S9       0.062033
     26 H9          -3.3260    -2.6790    -0.9330 h1         1 5S9       0.062033
@<TRIPOS>BOND
     1     1     2 1   
     2     2     3 ar  
     3     2     8 ar  
     4     3     4 ar  
     5     3    18 1   
     6     4     5 1   
     7     4     6 ar  
     8     6     7 ar  
     9     6    19 1   
    10     7     8 ar  
    11     7    20 1   
    12     8     9 1   
    13     9    10 1   
    14     9    21 1   
    15    10    11 2   
    16    10    12 1   
    17    12    13 2   
    18    12    16 1   
    19    13    14 1   
    20    13    22 1   
    21    14    15 2   
    22    14    23 1   
    23    15    16 1   
    24    16    17 1   
    25    17    24 1   
    26    17    25 1   
    27    17    26 1   
@<TRIPOS>SUBSTRUCTURE
     1 5S9         1 TEMP              0 ****  ****    0 ROOT
