@<TRIPOS>MOLECULE
5SB
   31    33     1     0     0
SMALL
No Charge or Current Charge


@<TRIPOS>ATOM
      1 CAA          5.4990     0.5220    -0.0310 c3         1 5SB      -0.179100
      2 CAN          4.1040     1.1400    -0.0220 c          1 5SB       0.608100
      3 OAB          3.9470     2.3560    -0.0320 o          1 5SB      -0.591100
      4 NAL          3.0760     0.2110    -0.0030 ns         1 5SB      -0.136000
      5 CAP          1.6530     0.3300     0.0160 ca         1 5SB       0.003000
      6 CAE          0.9990     1.5730     0.0830 ca         1 5SB      -0.142000
      7 CAF         -0.3980     1.6420     0.0830 ca         1 5SB      -0.072000
      8 CAS          0.8880    -0.8630    -0.0130 ca         1 5SB       0.232000
      9 NAK          1.5440    -2.0570    -0.0430 nb         1 5SB      -0.696000
     10 CAD          0.8350    -3.2040    -0.0220 ca         1 5SB       0.354900
     11 CAC         -0.5590    -3.2210     0.0570 ca         1 5SB      -0.168000
     12 CAG         -1.2580    -2.0060     0.0830 ca         1 5SB      -0.058000
     13 CAR         -0.5400    -0.7880     0.0090 ca         1 5SB      -0.041000
     14 CAQ         -1.1950     0.4800     0.0160 ca         1 5SB      -0.008000
     15 CAO         -2.6590     0.6680    -0.0940 cc         1 5SB      -0.156000
     16 CAH         -3.2860     1.7300     0.4950 cd         1 5SB      -0.159000
     17 NAJ         -4.6500     1.5310     0.2420 na         1 5SB      -0.001200
     18 NAM         -4.8950     0.3610    -0.4750 nd         1 5SB      -0.520800
     19 CAI         -3.6830    -0.1290    -0.6450 cc         1 5SB       0.247900
     20 H1           5.5960    -0.1520     0.8280 hc         1 5SB       0.064033
     21 H2           5.5780    -0.1690    -0.8780 hc         1 5SB       0.064033
     22 H3           6.2950     1.2750    -0.0470 hc         1 5SB       0.064033
     23 H4           3.3890    -0.7520    -0.0060 hn         1 5SB       0.182000
     24 H5           1.5530     2.5050     0.1180 ha         1 5SB       0.152000
     25 H6          -0.8590     2.6260     0.0860 ha         1 5SB       0.115000
     26 H7           1.4050    -4.1320    -0.0440 h4         1 5SB       0.018100
     27 H8          -1.0880    -4.1680     0.1090 ha         1 5SB       0.125000
     28 H9          -2.3320    -2.0430     0.2050 ha         1 5SB       0.128000
     29 H10         -2.9080     2.5690     1.0690 h4         1 5SB       0.158000
     30 H11         -5.4110     2.1430     0.5380 hn         1 5SB       0.373000
     31 H12         -3.5810    -1.0500    -1.2020 h4         1 5SB       0.040100
@<TRIPOS>BOND
     1     1     2 1   
     2     1    20 1   
     3     1    21 1   
     4     1    22 1   
     5     2     3 2   
     6     2     4 1   
     7     4     5 1   
     8     4    23 1   
     9     5     6 ar  
    10     5     8 ar  
    11     6     7 ar  
    12     6    24 1   
    13     7    14 ar  
    14     7    25 1   
    15     8     9 ar  
    16     8    13 ar  
    17     9    10 ar  
    18    10    11 ar  
    19    10    26 1   
    20    11    12 ar  
    21    11    27 1   
    22    12    13 ar  
    23    12    28 1   
    24    13    14 ar  
    25    14    15 1   
    26    15    16 2   
    27    15    19 1   
    28    16    17 1   
    29    16    29 1   
    30    17    18 1   
    31    17    30 1   
    32    18    19 2   
    33    19    31 1   
@<TRIPOS>SUBSTRUCTURE
     1 5SB         1 TEMP              0 ****  ****    0 ROOT
