@<TRIPOS>MOLECULE
5SB
   31    33     1     0     0
SMALL
abcg2


@<TRIPOS>ATOM
      1 CAA          5.4360     0.4540    -0.0860 c3         1 5SB      -0.179100
      2 CAN          4.0530     1.0520    -0.0870 c          1 5SB       0.608100
      3 OAB          3.8730     2.2580    -0.1290 o          1 5SB      -0.591100
      4 NAL          3.0470     0.1420    -0.0410 ns         1 5SB      -0.136000
      5 CAP          1.6750     0.3520    -0.0300 ca         1 5SB       0.003000
      6 CAE          1.0390     1.5700    -0.0740 ca         1 5SB      -0.142000
      7 CAF         -0.3650     1.6360    -0.0790 ca         1 5SB      -0.072000
      8 CAS          0.8790    -0.8340     0.0350 ca         1 5SB       0.232000
      9 NAK          1.5380    -2.0110     0.0880 nb         1 5SB      -0.696000
     10 CAD          0.8550    -3.1200     0.1790 ca         1 5SB       0.354900
     11 CAC         -0.5500    -3.1510     0.2400 ca         1 5SB      -0.168000
     12 CAG         -1.2340    -1.9700     0.1790 ca         1 5SB      -0.058000
     13 CAR         -0.5340    -0.7490     0.0530 ca         1 5SB      -0.041000
     14 CAQ         -1.1700     0.5240    -0.0250 ca         1 5SB      -0.008000
     15 CAO         -2.6260     0.6740    -0.0430 cc         1 5SB      -0.156000
     16 CAH         -3.3690     1.5930     0.6720 cd         1 5SB      -0.159000
     17 NAJ         -4.6460     1.4230     0.3040 na         1 5SB      -0.001200
     18 NAM         -4.8070     0.4680    -0.6020 nd         1 5SB      -0.520800
     19 CAI         -3.5940     0.0020    -0.8230 cc         1 5SB       0.247900
     20 H1           5.4490    -0.6310    -0.0090 hc         1 5SB       0.064033
     21 H2           5.9510     0.7410    -1.0030 hc         1 5SB       0.064033
     22 H3           6.0050     0.8670     0.7470 hc         1 5SB       0.064033
     23 H4           3.2960    -0.8390    -0.0060 hn         1 5SB       0.182000
     24 H5           1.6020     2.4870    -0.1230 ha         1 5SB       0.152000
     25 H6          -0.8220     2.6160    -0.1500 ha         1 5SB       0.115000
     26 H7           1.4210    -4.0440     0.2160 h4         1 5SB       0.018100
     27 H8          -1.0670    -4.0950     0.3410 ha         1 5SB       0.125000
     28 H9          -2.3140    -1.9700     0.2390 ha         1 5SB       0.128000
     29 H10         -3.0770     2.3270     1.4060 h4         1 5SB       0.158000
     30 H11         -5.4450     1.9390     0.6370 hn         1 5SB       0.373000
     31 H12         -3.4380    -0.7850    -1.5460 h4         1 5SB       0.040100
@<TRIPOS>BOND
     1     1     2 1   
     2     1    20 1   
     3     1    21 1   
     4     1    22 1   
     5     2     3 2   
     6     2     4 1   
     7     4     5 1   
     8     4    23 1   
     9     5     6 ar  
    10     5     8 ar  
    11     6     7 ar  
    12     6    24 1   
    13     7    14 ar  
    14     7    25 1   
    15     8     9 ar  
    16     8    13 ar  
    17     9    10 ar  
    18    10    11 ar  
    19    10    26 1   
    20    11    12 ar  
    21    11    27 1   
    22    12    13 ar  
    23    12    28 1   
    24    13    14 ar  
    25    14    15 1   
    26    15    16 2   
    27    15    19 1   
    28    16    17 1   
    29    16    29 1   
    30    17    18 1   
    31    17    30 1   
    32    18    19 2   
    33    19    31 1   
@<TRIPOS>SUBSTRUCTURE
     1 5SB         1 TEMP              0 ****  ****    0 ROOT
