@<TRIPOS>MOLECULE
5SC
   42    45     1     0     0
SMALL
No Charge or Current Charge


@<TRIPOS>ATOM
      1 C01          2.1170     2.1740    -0.2870 cc         1 5SC      -0.288900
      2 C02          1.5380     0.9470    -0.2850 cd         1 5SC       0.453500
      3 N03          0.1910     1.1850    -0.3520 na         1 5SC       0.071900
      4 N04         -0.1890     2.5240    -0.4080 nd         1 5SC      -0.617100
      5 C05          1.0220     3.0820    -0.3630 cc         1 5SC       0.441500
      6 N06          2.2490    -0.2290    -0.2180 nd         1 5SC      -0.676000
      7 C07          1.4020    -1.2640    -0.2350 cc         1 5SC       0.496500
      8 C08         -0.0400    -1.1250    -0.3210 cc         1 5SC      -0.326000
      9 C09         -0.6760     0.0960    -0.3830 cd         1 5SC       0.398000
     10 N10         -2.0330     0.2710    -0.4790 nu         1 5SC      -0.959200
     11 C11          2.0230    -2.6070    -0.1030 ca         1 5SC      -0.158500
     12 C12         -3.0750    -0.7590    -0.4040 c3         1 5SC       0.280100
     13 C13         -4.4400    -0.0960    -0.3120 ca         1 5SC      -0.091300
     14 C14         -4.9400     0.3390     0.9340 ca         1 5SC      -0.156300
     15 N15         -6.1840     0.9520     1.0380 na         1 5SC       0.471300
     16 C16         -6.9500     1.1430    -0.1070 ca         1 5SC      -0.206000
     17 C17         -6.4810     0.7260    -1.3670 ca         1 5SC      -0.084000
     18 C18         -5.2230     0.1050    -1.4680 ca         1 5SC      -0.111000
     19 C19          1.4500    -3.6920     0.6350 ca         1 5SC      -0.048300
     20 C20          2.1170    -4.9340     0.6830 ca         1 5SC      -0.121000
     21 C21          3.3550    -5.1180     0.0540 ca         1 5SC      -0.092000
     22 C22          3.9560    -4.0480    -0.6140 ca         1 5SC      -0.120000
     23 C23          3.3050    -2.8070    -0.6800 ca         1 5SC      -0.065000
     24 Br24         3.9560     2.6010    -0.2100 br         1 5SC      -0.016700
     25 C25          0.1880    -3.5720     1.4920 c3         1 5SC      -0.048800
     26 O26         -6.6090     1.3210     2.1390 o          1 5SC      -0.508000
     27 H05          1.0880     4.1620    -0.3880 h4         1 5SC       0.056800
     28 H08         -0.6330    -2.0230    -0.3920 ha         1 5SC       0.140000
     29 HN10        -2.3250     1.2510    -0.4970 hn         1 5SC       0.532000
     30 H121        -3.0360    -1.4060    -1.2920 h1         1 5SC       0.062200
     31 H122        -2.9210    -1.3970     0.4780 h1         1 5SC       0.062200
     32 H14         -4.3740     0.2170     1.8560 h4         1 5SC       0.170000
     33 H16         -7.9160     1.6270     0.0190 h4         1 5SC       0.172000
     34 H17         -7.0880     0.8820    -2.2580 ha         1 5SC       0.141000
     35 H18         -4.8550    -0.2160    -2.4420 ha         1 5SC       0.139000
     36 H20          1.6830    -5.7630     1.2360 ha         1 5SC       0.112000
     37 H21          3.8580    -6.0820     0.1070 ha         1 5SC       0.115000
     38 H22          4.9270    -4.1780    -1.0880 ha         1 5SC       0.118000
     39 H23          3.7960    -2.0030    -1.2250 ha         1 5SC       0.129000
     40 H251        -0.7110    -3.8370     0.9220 hc         1 5SC       0.043700
     41 H252         0.2300    -4.2510     2.3520 hc         1 5SC       0.043700
     42 H253         0.0620    -2.5650     1.9060 hc         1 5SC       0.043700
@<TRIPOS>BOND
     1     1     2 2   
     2     1     5 1   
     3     1    24 1   
     4     2     3 1   
     5     2     6 1   
     6     3     4 1   
     7     3     9 1   
     8     4     5 2   
     9     5    27 1   
    10     6     7 2   
    11     7     8 1   
    12     7    11 1   
    13     8     9 2   
    14     8    28 1   
    15     9    10 1   
    16    10    12 1   
    17    10    29 1   
    18    11    19 ar  
    19    11    23 ar  
    20    12    13 1   
    21    12    30 1   
    22    12    31 1   
    23    13    14 ar  
    24    13    18 ar  
    25    14    15 2   
    26    14    32 1   
    27    15    16 1   
    28    15    26 1   
    29    16    17 ar  
    30    16    33 1   
    31    17    18 ar  
    32    17    34 1   
    33    18    35 1   
    34    19    20 ar  
    35    19    25 1   
    36    20    21 ar  
    37    20    36 1   
    38    21    22 ar  
    39    21    37 1   
    40    22    23 ar  
    41    22    38 1   
    42    23    39 1   
    43    25    40 1   
    44    25    41 1   
    45    25    42 1   
@<TRIPOS>SUBSTRUCTURE
     1 5SC         1 TEMP              0 ****  ****    0 ROOT
