@<TRIPOS>MOLECULE
5SC
   42    45     1     0     0
SMALL
bcc


@<TRIPOS>ATOM
      1 C01          2.0610     2.2110    -0.3380 cc         1 5SC      -0.288900
      2 C02          1.5420     0.9240    -0.2540 cd         1 5SC       0.453500
      3 N03          0.1810     1.1200    -0.1840 na         1 5SC       0.021200
      4 N04         -0.1820     2.4070    -0.2180 nd         1 5SC      -0.617100
      5 C05          0.9600     3.0680    -0.3110 cc         1 5SC       0.441500
      6 N06          2.1040    -0.2830    -0.2280 nd         1 5SC      -0.676000
      7 C07          1.2800    -1.3100    -0.1310 cc         1 5SC       0.561800
      8 C08         -0.1180    -1.1820    -0.0760 cc         1 5SC      -0.409300
      9 C09         -0.6920     0.0770    -0.1060 cd         1 5SC       0.310300
     10 N10         -1.9920     0.3710    -0.0840 nu         1 5SC      -0.765600
     11 C11          1.9050    -2.6540    -0.1370 ca         1 5SC      -0.158500
     12 C12         -3.0120    -0.6410     0.0950 c3         1 5SC       0.280100
     13 C13         -4.3620    -0.0520    -0.1970 ca         1 5SC      -0.091300
     14 C14         -5.2340     0.1850     0.8440 ca         1 5SC      -0.174300
     15 N15         -6.4620     0.7220     0.6410 na         1 5SC       0.230600
     16 C16         -6.8370     1.0380    -0.6200 ca         1 5SC      -0.173300
     17 C17         -5.9960     0.8220    -1.6890 ca         1 5SC      -0.102000
     18 C18         -4.7410     0.2730    -1.4950 ca         1 5SC      -0.129000
     19 C19          1.5730    -3.6510     0.7920 ca         1 5SC      -0.048300
     20 C20          2.2220    -4.8810     0.6930 ca         1 5SC      -0.139000
     21 C21          3.1650    -5.1340    -0.2910 ca         1 5SC      -0.110000
     22 C22          3.4960    -4.1390    -1.1990 ca         1 5SC      -0.138000
     23 C23          2.8740    -2.9050    -1.1100 ca         1 5SC      -0.083000
     24 BR24         3.8590     2.6440    -0.4590 br         1 5SC      -0.016700
     25 C25          0.5830    -3.4450     1.9050 c3         1 5SC      -0.048800
     26 O26         -7.2420     0.9260     1.6220 o          1 5SC      -0.318000
     27 H05          0.9620     4.1460    -0.3560 h4         1 5SC       0.056800
     28 H08         -0.7480    -2.0560    -0.0270 ha         1 5SC       0.158000
     29 HN10        -2.2440     1.3410     0.0360 hn         1 5SC       0.476800
     30 H121        -2.8250    -1.4640    -0.5970 h1         1 5SC       0.062200
     31 H122        -2.9840    -1.0520     1.1080 h1         1 5SC       0.062200
     32 H14         -4.9940    -0.0410     1.8730 h4         1 5SC       0.188000
     33 H16         -7.8250     1.4630    -0.7200 h4         1 5SC       0.190000
     34 H17         -6.3440     1.0880    -2.6770 ha         1 5SC       0.159000
     35 H18         -4.0750     0.0960    -2.3290 ha         1 5SC       0.157000
     36 H20          1.9880    -5.6550     1.4140 ha         1 5SC       0.130000
     37 H21          3.6450    -6.1030    -0.3410 ha         1 5SC       0.133000
     38 H22          4.2350    -4.3180    -1.9690 ha         1 5SC       0.136000
     39 H23          3.1300    -2.1220    -1.8120 ha         1 5SC       0.147000
     40 H251        -0.4410    -3.6310     1.5760 hc         1 5SC       0.043700
     41 H252         0.7860    -4.1350     2.7230 hc         1 5SC       0.043700
     42 H253         0.6150    -2.4330     2.3060 hc         1 5SC       0.043700
@<TRIPOS>BOND
     1     1     2 2   
     2     1     5 1   
     3     1    24 1   
     4     2     3 1   
     5     2     6 1   
     6     3     4 1   
     7     3     9 1   
     8     4     5 2   
     9     5    27 1   
    10     6     7 2   
    11     7     8 1   
    12     7    11 1   
    13     8     9 2   
    14     8    28 1   
    15     9    10 1   
    16    10    12 1   
    17    10    29 1   
    18    11    19 ar  
    19    11    23 ar  
    20    12    13 1   
    21    12    30 1   
    22    12    31 1   
    23    13    14 ar  
    24    13    18 ar  
    25    14    15 2   
    26    14    32 1   
    27    15    16 1   
    28    15    26 1   
    29    16    17 ar  
    30    16    33 1   
    31    17    18 ar  
    32    17    34 1   
    33    18    35 1   
    34    19    20 ar  
    35    19    25 1   
    36    20    21 ar  
    37    20    36 1   
    38    21    22 ar  
    39    21    37 1   
    40    22    23 ar  
    41    22    38 1   
    42    23    39 1   
    43    25    40 1   
    44    25    41 1   
    45    25    42 1   
@<TRIPOS>SUBSTRUCTURE
     1 5SC         1 TEMP              0 ****  ****    0 ROOT
