@<TRIPOS>MOLECULE
5SD
   49    52     1     0     0
SMALL
bcc


@<TRIPOS>ATOM
      1 C1           1.4790     0.5070     2.4220 c6         1 5SD      -0.063400
      2 C2           1.4270     0.2660     3.9340 c6         1 5SD      -0.185400
      3 C3           0.0700     0.5520     4.5180 c          1 5SD       0.577100
      4 O3          -0.0820     1.1940     5.5350 o          1 5SD      -0.521100
      5 C4          -1.0830    -0.0340     3.7510 c6         1 5SD      -0.182400
      6 C5          -0.9750     0.2390     2.2460 c6         1 5SD      -0.048700
      7 C6          -2.1750    -0.3230     1.4990 c6         1 5SD      -0.069400
      8 C7          -2.1410     0.1040     0.0400 c6         1 5SD      -0.071400
      9 C8          -0.8300    -0.2810    -0.6370 c6         1 5SD      -0.042700
     10 C9           0.3970     0.2200     0.1590 c6         1 5SD      -0.047700
     11 C10          0.3720    -0.2220     1.6450 c6         1 5SD      -0.032000
     12 C11          1.7090    -0.1270    -0.5610 c6         1 5SD      -0.072400
     13 C12          1.7590     0.3530    -2.0150 c6         1 5SD      -0.051400
     14 C13          0.5390    -0.1400    -2.7760 c5         1 5SD      -0.154000
     15 C14         -0.7320     0.2970    -2.0380 c5         1 5SD      -0.062700
     16 C15         -1.8510     0.0780    -3.0580 c5         1 5SD      -0.067400
     17 C16         -1.2050     0.5650    -4.3630 c5         1 5SD      -0.191400
     18 C17          0.2980     0.4610    -4.1440 c          1 5SD       0.580100
     19 O17          1.1470     0.8040    -4.9320 o          1 5SD      -0.512100
     20 C18          0.6090    -1.6580    -3.0180 c3         1 5SD      -0.078100
     21 C19          0.5750    -1.7370     1.7650 c3         1 5SD      -0.082100
     22 H1C1         2.4660     0.2010     2.0710 hc         1 5SD       0.046700
     23 H1C2         1.4010     1.5830     2.2290 hc         1 5SD       0.046700
     24 H2C1         1.6520    -0.7850     4.1450 hc         1 5SD       0.066200
     25 H2C2         2.1860     0.8590     4.4470 hc         1 5SD       0.066200
     26 H4C1        -1.0960    -1.1150     3.9330 hc         1 5SD       0.066700
     27 H4C2        -2.0220     0.3640     4.1420 hc         1 5SD       0.066700
     28 H5          -1.0070     1.3310     2.1180 hc         1 5SD       0.050700
     29 H6C1        -2.1920    -1.4150     1.5790 hc         1 5SD       0.043200
     30 H6C2        -3.0970     0.0320     1.9680 hc         1 5SD       0.043200
     31 H7C1        -2.9810    -0.3380    -0.5020 hc         1 5SD       0.041700
     32 H7C2        -2.2730     1.1910    -0.0200 hc         1 5SD       0.041700
     33 H8          -0.8000    -1.3760    -0.6990 hc         1 5SD       0.052700
     34 H9           0.3200     1.3190     0.1700 hc         1 5SD       0.044700
     35 H111         2.5530     0.3150    -0.0280 hc         1 5SD       0.041700
     36 H112         1.8710    -1.2080    -0.5320 hc         1 5SD       0.041700
     37 H121         1.7840     1.4480    -2.0380 hc         1 5SD       0.051200
     38 H122         2.6840     0.0090    -2.4840 hc         1 5SD       0.051200
     39 H14         -0.6490     1.3880    -1.9120 hc         1 5SD       0.047700
     40 H151        -2.1350    -0.9750    -3.1230 hc         1 5SD       0.049200
     41 H152        -2.7530     0.6370    -2.8110 hc         1 5SD       0.049200
     42 H161        -1.5100     0.0120    -5.2540 hc         1 5SD       0.072700
     43 H162        -1.4430     1.6150    -4.5520 hc         1 5SD       0.072700
     44 H181         0.6440    -2.2200    -2.0860 hc         1 5SD       0.040700
     45 H182        -0.2440    -2.0350    -3.5840 hc         1 5SD       0.040700
     46 H183         1.5100    -1.9030    -3.5820 hc         1 5SD       0.040700
     47 H191         0.3700    -2.1130     2.7680 hc         1 5SD       0.034033
     48 H192        -0.0650    -2.2970     1.0830 hc         1 5SD       0.034033
     49 H193         1.6060    -2.0080     1.5340 hc         1 5SD       0.034033
@<TRIPOS>BOND
     1     1     2 1   
     2     1    11 1   
     3     1    22 1   
     4     1    23 1   
     5     2     3 1   
     6     2    24 1   
     7     2    25 1   
     8     3     4 2   
     9     3     5 1   
    10     5     6 1   
    11     5    26 1   
    12     5    27 1   
    13     6     7 1   
    14     6    11 1   
    15     6    28 1   
    16     7     8 1   
    17     7    29 1   
    18     7    30 1   
    19     8     9 1   
    20     8    31 1   
    21     8    32 1   
    22     9    10 1   
    23     9    15 1   
    24     9    33 1   
    25    10    11 1   
    26    10    12 1   
    27    10    34 1   
    28    11    21 1   
    29    12    13 1   
    30    12    35 1   
    31    12    36 1   
    32    13    14 1   
    33    13    37 1   
    34    13    38 1   
    35    14    15 1   
    36    14    18 1   
    37    14    20 1   
    38    15    16 1   
    39    15    39 1   
    40    16    17 1   
    41    16    40 1   
    42    16    41 1   
    43    17    18 1   
    44    17    42 1   
    45    17    43 1   
    46    18    19 2   
    47    20    44 1   
    48    20    45 1   
    49    20    46 1   
    50    21    47 1   
    51    21    48 1   
    52    21    49 1   
@<TRIPOS>SUBSTRUCTURE
     1 5SD         1 TEMP              0 ****  ****    0 ROOT
