@<TRIPOS>MOLECULE
5SD
   49    52     1     0     0
SMALL
No Charge or Current Charge


@<TRIPOS>ATOM
      1 C1           1.5560     0.4160     2.4930 c6         1 5SD      -0.063400
      2 C2           1.4770     0.1810     4.0280 c6         1 5SD      -0.185400
      3 C3           0.1010     0.5260     4.6100 c          1 5SD       0.577100
      4 O3          -0.0210     1.2230     5.6100 o          1 5SD      -0.521100
      5 C4          -1.1130     0.0160     3.8260 c6         1 5SD      -0.182400
      6 C5          -0.9730     0.2980     2.3030 c6         1 5SD      -0.048700
      7 C6          -2.2180    -0.2010     1.5230 c6         1 5SD      -0.069400
      8 C7          -2.1530     0.2460     0.0460 c6         1 5SD      -0.071400
      9 C8          -0.8410    -0.2160    -0.6450 c6         1 5SD      -0.042700
     10 C9           0.4250     0.2540     0.1710 c6         1 5SD      -0.047700
     11 C10          0.3780    -0.2320     1.6830 c6         1 5SD      -0.032000
     12 C11          1.7570    -0.1080    -0.5840 c6         1 5SD      -0.072400
     13 C12          1.7760     0.3870    -2.0610 c6         1 5SD      -0.051400
     14 C13          0.5340    -0.1210    -2.8520 c5         1 5SD      -0.154000
     15 C14         -0.7480     0.3370    -2.0940 c5         1 5SD      -0.062700
     16 C15         -1.8920     0.0230    -3.1060 c5         1 5SD      -0.067400
     17 C16         -1.2160     0.3260    -4.4880 c5         1 5SD      -0.191400
     18 C17          0.2780     0.5800    -4.2020 c          1 5SD       0.580100
     19 O17          0.9890     1.4100    -4.7550 o          1 5SD      -0.512100
     20 C18          0.6730    -1.6670    -3.0870 c3         1 5SD      -0.078100
     21 C19          0.4970    -1.8010     1.7700 c3         1 5SD      -0.082100
     22 H1C1         2.5230     0.0330     2.1400 hc         1 5SD       0.046700
     23 H1C2         1.5760     1.5000     2.3070 hc         1 5SD       0.046700
     24 H2C1         1.6190    -0.8940     4.1840 hc         1 5SD       0.066200
     25 H2C2         2.2660     0.7160     4.5730 hc         1 5SD       0.066200
     26 H4C1        -1.1430    -1.0720     3.9550 hc         1 5SD       0.066700
     27 H4C2        -2.0330     0.4420     4.2490 hc         1 5SD       0.066700
     28 H5          -0.9670     1.3940     2.2040 hc         1 5SD       0.050700
     29 H6C1        -2.3060    -1.2940     1.5860 hc         1 5SD       0.043200
     30 H6C2        -3.1310     0.2050     1.9790 hc         1 5SD       0.043200
     31 H7C1        -3.0240    -0.1570    -0.4900 hc         1 5SD       0.041700
     32 H7C2        -2.2380     1.3400    -0.0060 hc         1 5SD       0.041700
     33 H8          -0.8590    -1.3110    -0.7030 hc         1 5SD       0.052700
     34 H9           0.3880     1.3530     0.1940 hc         1 5SD       0.044700
     35 H111         2.6160     0.3440    -0.0740 hc         1 5SD       0.041700
     36 H112         1.9350    -1.1900    -0.5620 hc         1 5SD       0.041700
     37 H121         1.7910     1.4870    -2.0640 hc         1 5SD       0.051200
     38 H122         2.7040     0.0690    -2.5550 hc         1 5SD       0.051200
     39 H14         -0.7150     1.4270    -1.9610 hc         1 5SD       0.047700
     40 H151        -2.2180    -1.0220    -3.0370 hc         1 5SD       0.049200
     41 H152        -2.7770     0.6470    -2.9340 hc         1 5SD       0.049200
     42 H161        -1.2910    -0.5690    -5.1130 hc         1 5SD       0.072700
     43 H162        -1.6480     1.1700    -5.0360 hc         1 5SD       0.072700
     44 H181         0.7260    -2.2320    -2.1510 hc         1 5SD       0.040700
     45 H182        -0.1620    -2.0890    -3.6570 hc         1 5SD       0.040700
     46 H183         1.5860    -1.8920    -3.6520 hc         1 5SD       0.040700
     47 H191         0.3850    -2.1800     2.7900 hc         1 5SD       0.034033
     48 H192        -0.2560    -2.3200     1.1690 hc         1 5SD       0.034033
     49 H193         1.4770    -2.1500     1.4260 hc         1 5SD       0.034033
@<TRIPOS>BOND
     1     1     2 1   
     2     1    11 1   
     3     1    22 1   
     4     1    23 1   
     5     2     3 1   
     6     2    24 1   
     7     2    25 1   
     8     3     4 2   
     9     3     5 1   
    10     5     6 1   
    11     5    26 1   
    12     5    27 1   
    13     6     7 1   
    14     6    11 1   
    15     6    28 1   
    16     7     8 1   
    17     7    29 1   
    18     7    30 1   
    19     8     9 1   
    20     8    31 1   
    21     8    32 1   
    22     9    10 1   
    23     9    15 1   
    24     9    33 1   
    25    10    11 1   
    26    10    12 1   
    27    10    34 1   
    28    11    21 1   
    29    12    13 1   
    30    12    35 1   
    31    12    36 1   
    32    13    14 1   
    33    13    37 1   
    34    13    38 1   
    35    14    15 1   
    36    14    18 1   
    37    14    20 1   
    38    15    16 1   
    39    15    39 1   
    40    16    17 1   
    41    16    40 1   
    42    16    41 1   
    43    17    18 1   
    44    17    42 1   
    45    17    43 1   
    46    18    19 2   
    47    20    44 1   
    48    20    45 1   
    49    20    46 1   
    50    21    47 1   
    51    21    48 1   
    52    21    49 1   
@<TRIPOS>SUBSTRUCTURE
     1 5SD         1 TEMP              0 ****  ****    0 ROOT
