@<TRIPOS>MOLECULE
5SF
   63    66     1     0     0
SMALL
bcc


@<TRIPOS>ATOM
      1 C1           2.7890     5.2070     0.0510 c3         1 5SF       0.175500
      2 C2           3.5610     6.3650     0.6680 c3         1 5SF      -0.108100
      3 C3           2.1730     2.8730     0.5050 c3         1 5SF       0.132800
      4 C7          -1.1870     0.4840     3.1520 ca         1 5SF      -0.141300
      5 C8          -2.1650     0.1170     2.2080 ca         1 5SF       0.259300
      6 C9          -1.7720    -0.1370     0.8730 ca         1 5SF       0.325300
      7 C10         -0.4200    -0.0000     0.5070 ca         1 5SF      -0.202300
      8 C11         -3.9330    -0.5970     0.3110 ca         1 5SF       0.427500
      9 C12         -4.3160    -0.3410     1.6630 ca         1 5SF       0.296900
     10 C13         -4.9170    -0.9870    -0.6800 cc         1 5SF      -0.348800
     11 C14         -4.6900    -1.2900    -2.0380 cc         1 5SF       0.357200
     12 C15         -6.2840    -1.1550    -0.5310 cd         1 5SF      -0.109300
     13 C19          2.7270    -2.7170    -0.5410 ca         1 5SF       0.204600
     14 C20          3.8190    -2.3610    -1.3350 ca         1 5SF      -0.337000
     15 C21          4.2410    -1.0350    -1.3090 ca         1 5SF       0.204600
     16 C22          3.5900    -0.0810    -0.5310 ca         1 5SF      -0.259000
     17 C24          2.8780    -4.9920    -1.2230 c3         1 5SF       0.127700
     18 O1           2.2400    -3.9720    -0.4810 os         1 5SF      -0.318900
     19 C18          2.0820    -1.7850     0.2600 ca         1 5SF      -0.259000
     20 O            5.2800    -0.5760    -2.0320 os         1 5SF      -0.318900
     21 C23          5.9950    -1.4780    -2.8530 c3         1 5SF       0.127700
     22 C17          2.5050    -0.4520     0.2650 ca         1 5SF       0.248600
     23 N1           1.8840     0.4690     1.1050 nh         1 5SF      -0.579400
     24 C4           2.5370     1.7230     1.4410 c3         1 5SF       0.226800
     25 N            2.7760     4.0960     0.9950 n7         1 5SF      -0.817200
     26 C            1.4020     5.6620    -0.4020 c3         1 5SF      -0.108100
     27 C5           0.5280     0.3440     1.4440 ca         1 5SF       0.169600
     28 N2          -2.6820    -0.4910    -0.0610 nb         1 5SF      -0.647000
     29 N5          -6.7620    -1.5220    -1.7250 na         1 5SF       0.115400
     30 N4          -5.8080    -1.6100    -2.6520 nd         1 5SF      -0.530800
     31 N3          -3.4620     0.0040     2.5780 nb         1 5SF      -0.620000
     32 C6           0.1250     0.5860     2.7820 ca         1 5SF      -0.143000
     33 H3           3.3380     4.8600    -0.8320 h1         1 5SF       0.057700
     34 H4           4.5710     6.0610     0.9450 hc         1 5SF       0.037700
     35 H5           3.6350     7.2020    -0.0260 hc         1 5SF       0.037700
     36 H6           3.0580     6.7260     1.5680 hc         1 5SF       0.037700
     37 H9           2.5590     2.6750    -0.4980 h1         1 5SF       0.040200
     38 H8           1.0790     2.9230     0.4070 h1         1 5SF       0.040200
     39 H13         -1.4890     0.6630     4.1760 ha         1 5SF       0.151000
     40 H14         -0.1450    -0.1850    -0.5240 ha         1 5SF       0.163000
     41 H15         -5.3540    -0.4310     1.9630 h4         1 5SF       0.022100
     42 H16         -3.7510    -1.2830    -2.5710 h4         1 5SF       0.055100
     43 H17         -6.9330    -1.0420     0.3220 h4         1 5SF       0.172000
     44 H19         -8.4650    -1.1890    -2.8800 h1         1 5SF       0.058033
     45 H20         -8.2240    -2.8690    -2.3630 h1         1 5SF       0.058033
     46 H18         -8.7580    -1.6490    -1.1970 h1         1 5SF       0.058033
     47 H22          4.3210    -3.0920    -1.9500 ha         1 5SF       0.139000
     48 H23          3.9420     0.9400    -0.5750 ha         1 5SF       0.154500
     49 H28          2.3320    -5.9090    -1.0160 h1         1 5SF       0.039700
     50 H27          2.8460    -4.8000    -2.2990 h1         1 5SF       0.039700
     51 H29          3.9200    -5.1280    -0.9200 h1         1 5SF       0.039700
     52 H21          1.2610    -2.1140     0.8830 ha         1 5SF       0.154500
     53 H24          6.7920    -0.9050    -3.3200 h1         1 5SF       0.039700
     54 H25          6.4390    -2.2930    -2.2750 h1         1 5SF       0.039700
     55 H26          5.3640    -1.9060    -3.6380 h1         1 5SF       0.039700
     56 H11          3.6160     1.5740     1.4560 h1         1 5SF       0.061200
     57 H10          2.2640     1.9980     2.4620 h1         1 5SF       0.061200
     58 H7           2.2970     4.3880     1.8410 hn         1 5SF       0.350800
     59 H            0.8210     6.0300     0.4480 hc         1 5SF       0.037700
     60 H2           1.4750     6.4700    -1.1320 hc         1 5SF       0.037700
     61 H1           0.8380     4.8510    -0.8670 hc         1 5SF       0.037700
     62 H12          0.8680     0.8370     3.5280 ha         1 5SF       0.142000
     63 C16         -8.1310    -1.8270    -2.0650 c3         1 5SF       0.042600
@<TRIPOS>BOND
     1     1     2 1   
     2     1    25 1   
     3     1    26 1   
     4     1    33 1   
     5     2    34 1   
     6     2    35 1   
     7     2    36 1   
     8     3    24 1   
     9     3    25 1   
    10     3    37 1   
    11     3    38 1   
    12     4     5 ar  
    13     4    32 ar  
    14     4    39 1   
    15     5     6 ar  
    16     5    31 ar  
    17     6     7 ar  
    18     6    28 ar  
    19     7    27 ar  
    20     7    40 1   
    21     8     9 ar  
    22     8    10 1   
    23     8    28 ar  
    24     9    31 ar  
    25     9    41 1   
    26    10    11 1   
    27    10    12 2   
    28    11    30 2   
    29    11    42 1   
    30    12    29 1   
    31    12    43 1   
    32    13    14 ar  
    33    13    18 1   
    34    13    19 ar  
    35    14    15 ar  
    36    14    47 1   
    37    15    16 ar  
    38    15    20 1   
    39    16    22 ar  
    40    16    48 1   
    41    17    18 1   
    42    17    49 1   
    43    17    50 1   
    44    17    51 1   
    45    19    22 ar  
    46    19    52 1   
    47    20    21 1   
    48    21    53 1   
    49    21    54 1   
    50    21    55 1   
    51    22    23 1   
    52    23    24 1   
    53    23    27 1   
    54    24    56 1   
    55    24    57 1   
    56    25    58 1   
    57    26    59 1   
    58    26    60 1   
    59    26    61 1   
    60    27    32 ar  
    61    29    30 1   
    62    29    63 1   
    63    32    62 1   
    64    44    63 1   
    65    45    63 1   
    66    46    63 1   
@<TRIPOS>SUBSTRUCTURE
     1 5SF         1 TEMP              0 ****  ****    0 ROOT
