@<TRIPOS>MOLECULE
5SF
   63    66     1     0     0
SMALL
No Charge or Current Charge


@<TRIPOS>ATOM
      1 C1           2.7930     5.5900     0.4710 c3         1 5SF       0.175500
      2 C2           3.9870     6.5260     0.7420 c3         1 5SF      -0.108100
      3 C3           2.2100     3.1450     0.6660 c3         1 5SF       0.132800
      4 C7          -1.3380     1.0520     2.7340 ca         1 5SF      -0.058000
      5 C8          -2.2720     0.4870     1.8500 ca         1 5SF       0.194000
      6 C9          -1.8050    -0.0510     0.6050 ca         1 5SF       0.260000
      7 C10         -0.4350     0.0010     0.3030 ca         1 5SF      -0.119000
      8 C11         -3.9750    -0.6370     0.0390 ca         1 5SF       0.427500
      9 C12         -4.4310    -0.1010     1.2790 ca         1 5SF       0.296900
     10 C13         -4.8800    -1.2410    -0.9400 cc         1 5SF      -0.283500
     11 C14         -4.5870    -1.8050    -2.1880 cc         1 5SF       0.291900
     12 C15         -6.2310    -1.3480    -0.7620 cd         1 5SF      -0.142000
     13 C19          2.8040    -2.8270    -0.2330 ca         1 5SF       0.204600
     14 C20          3.6510    -2.5500    -1.3230 ca         1 5SF      -0.319000
     15 C21          3.9060    -1.2130    -1.6860 ca         1 5SF       0.204600
     16 C22          3.3180    -0.1720    -0.9610 ca         1 5SF      -0.241000
     17 C24          3.0530    -5.2690    -0.4870 c3         1 5SF       0.150900
     18 O1           2.5130    -4.1120     0.1740 os         1 5SF      -0.342100
     19 C18          2.2230    -1.7740     0.4800 ca         1 5SF      -0.241000
     20 O            4.7210    -0.8740    -2.7450 os         1 5SF      -0.342100
     21 C23          5.3750    -1.8630    -3.5600 c3         1 5SF       0.150900
     22 C17          2.4760    -0.4430     0.1250 ca         1 5SF       0.387000
     23 N1           1.8730     0.6070     0.8540 nh         1 5SF      -0.856200
     24 C4           2.7030     1.7860     1.2420 c3         1 5SF       0.226800
     25 N            3.0830     4.2770     1.0770 n7         1 5SF      -0.872400
     26 C            1.4750     6.1690     1.0300 c3         1 5SF      -0.108100
     27 C5           0.4950     0.5670     1.1930 ca         1 5SF       0.308000
     28 N2          -2.6590    -0.6090    -0.2950 nb         1 5SF      -0.647000
     29 N5          -6.6790    -1.9790    -1.9290 na         1 5SF       0.136800
     30 N4          -5.6500    -2.2640    -2.8200 nd         1 5SF      -0.530800
     31 N3          -3.5880     0.4620     2.1890 nb         1 5SF      -0.620000
     32 C6           0.0280     1.0930     2.4120 ca         1 5SF      -0.125000
     33 H3           2.6930     5.4880    -0.6190 h1         1 5SF       0.057700
     34 H4           4.9100     6.1070     0.3230 hc         1 5SF       0.037700
     35 H5           3.8190     7.5050     0.2770 hc         1 5SF       0.037700
     36 H6           4.1330     6.6790     1.8180 hc         1 5SF       0.037700
     37 H9           2.1890     3.0640    -0.4290 h1         1 5SF       0.040200
     38 H8           1.1790     3.3140     1.0030 h1         1 5SF       0.040200
     39 H13         -1.6790     1.4610     3.6820 ha         1 5SF       0.133000
     40 H14         -0.0950    -0.3980    -0.6460 ha         1 5SF       0.145000
     41 H15         -5.4830    -0.1200     1.5540 h4         1 5SF       0.022100
     42 H16         -3.6170    -1.8960    -2.6600 h4         1 5SF       0.055100
     43 H17         -6.8930    -1.0510     0.0440 h4         1 5SF       0.154000
     44 H19         -8.3750    -1.8180    -3.1680 h1         1 5SF       0.058033
     45 H20         -8.1470    -3.4160    -2.3940 h1         1 5SF       0.058033
     46 H18         -8.7280    -2.0290    -1.4270 h1         1 5SF       0.058033
     47 H22          4.1040    -3.3610    -1.8800 ha         1 5SF       0.121000
     48 H23          3.5080     0.8530    -1.2610 ha         1 5SF       0.136500
     49 H28          2.6930    -6.1860    -0.0030 h1         1 5SF       0.039700
     50 H27          2.7430    -5.2970    -1.5400 h1         1 5SF       0.039700
     51 H29          4.1490    -5.2690    -0.4420 h1         1 5SF       0.039700
     52 H21          1.5780    -1.9950     1.3230 ha         1 5SF       0.136500
     53 H24          5.9720    -1.3760    -4.3420 h1         1 5SF       0.039700
     54 H25          6.0490    -2.4830    -2.9550 h1         1 5SF       0.039700
     55 H26          4.6400    -2.5140    -4.0500 h1         1 5SF       0.039700
     56 H11          3.7410     1.6410     0.9120 h1         1 5SF       0.061200
     57 H10          2.7570     1.8590     2.3360 h1         1 5SF       0.061200
     58 H7           3.0470     4.3770     2.0990 hn         1 5SF       0.406000
     59 H            1.5110     6.2500     2.1230 hc         1 5SF       0.037700
     60 H2           1.2950     7.1690     0.6190 hc         1 5SF       0.037700
     61 H1           0.6190     5.5410     0.7560 hc         1 5SF       0.037700
     62 H12          0.7200     1.5260     3.1270 ha         1 5SF       0.124000
     63 C16         -8.0690    -2.3320    -2.2490 c3         1 5SF       0.071900
@<TRIPOS>BOND
     1     1     2 1   
     2     1    25 1   
     3     1    26 1   
     4     1    33 1   
     5     2    34 1   
     6     2    35 1   
     7     2    36 1   
     8     3    24 1   
     9     3    25 1   
    10     3    37 1   
    11     3    38 1   
    12     4     5 ar  
    13     4    32 ar  
    14     4    39 1   
    15     5     6 ar  
    16     5    31 ar  
    17     6     7 ar  
    18     6    28 ar  
    19     7    27 ar  
    20     7    40 1   
    21     8     9 ar  
    22     8    10 1   
    23     8    28 ar  
    24     9    31 ar  
    25     9    41 1   
    26    10    11 1   
    27    10    12 2   
    28    11    30 2   
    29    11    42 1   
    30    12    29 1   
    31    12    43 1   
    32    13    14 ar  
    33    13    18 1   
    34    13    19 ar  
    35    14    15 ar  
    36    14    47 1   
    37    15    16 ar  
    38    15    20 1   
    39    16    22 ar  
    40    16    48 1   
    41    17    18 1   
    42    17    49 1   
    43    17    50 1   
    44    17    51 1   
    45    19    22 ar  
    46    19    52 1   
    47    20    21 1   
    48    21    53 1   
    49    21    54 1   
    50    21    55 1   
    51    22    23 1   
    52    23    24 1   
    53    23    27 1   
    54    24    56 1   
    55    24    57 1   
    56    25    58 1   
    57    26    59 1   
    58    26    60 1   
    59    26    61 1   
    60    27    32 ar  
    61    29    30 1   
    62    29    63 1   
    63    32    62 1   
    64    44    63 1   
    65    45    63 1   
    66    46    63 1   
@<TRIPOS>SUBSTRUCTURE
     1 5SF         1 TEMP              0 ****  ****    0 ROOT
