@<TRIPOS>MOLECULE
5SG
   18    19     1     0     0
SMALL
No Charge or Current Charge


@<TRIPOS>ATOM
      1 CAD          2.2890    -0.2660    -0.1360 ca         1 5SG      -0.209000
      2 CAB          1.8810    -1.6100    -0.0920 ca         1 5SG      -0.068000
      3 CAE          0.5130    -1.9290    -0.0400 ca         1 5SG      -0.121000
      4 CAJ         -0.4500    -0.9020    -0.0320 ca         1 5SG      -0.067000
      5 CAG         -1.8280    -1.1980     0.0190 ca         1 5SG       0.349900
      6 NAH         -2.7920    -0.2460     0.0290 nb         1 5SG      -0.655000
      7 CAC         -2.3960     1.0480    -0.0140 ca         1 5SG       0.306900
      8 CAF         -1.0470     1.4380    -0.0670 ca         1 5SG      -0.119000
      9 CAK         -0.0420     0.4490    -0.0770 ca         1 5SG      -0.035000
     10 CAI          1.3350     0.7660    -0.1290 ca         1 5SG       0.152100
     11 OAA          1.7580     2.0640    -0.1730 oh         1 5SG      -0.529100
     12 H1           3.3510    -0.0330    -0.1760 ha         1 5SG       0.115000
     13 H2           2.6230    -2.4060    -0.0980 ha         1 5SG       0.115000
     14 H3           0.2050    -2.9720    -0.0060 ha         1 5SG       0.121000
     15 H4          -2.1740    -2.2310     0.0550 h4         1 5SG       0.019100
     16 H5          -3.1880     1.7960    -0.0050 h4         1 5SG       0.019100
     17 H6          -0.8000     2.4950    -0.0990 ha         1 5SG       0.135000
     18 H7           2.7380     2.0680    -0.2050 ho         1 5SG       0.469000
@<TRIPOS>BOND
     1     1     2 ar  
     2     1    10 ar  
     3     1    12 1   
     4     2     3 ar  
     5     2    13 1   
     6     3     4 ar  
     7     3    14 1   
     8     4     5 ar  
     9     4     9 ar  
    10     5     6 ar  
    11     5    15 1   
    12     6     7 ar  
    13     7     8 ar  
    14     7    16 1   
    15     8     9 ar  
    16     8    17 1   
    17     9    10 ar  
    18    10    11 1   
    19    11    18 1   
@<TRIPOS>SUBSTRUCTURE
     1 5SG         1 TEMP              0 ****  ****    0 ROOT
