@<TRIPOS>MOLECULE
5SG
   18    19     1     0     0
SMALL
abcg2


@<TRIPOS>ATOM
      1 CAD          2.2740    -0.2800    -0.1360 ca         1 5SG      -0.209000
      2 CAB          1.8520    -1.6230    -0.0910 ca         1 5SG      -0.068000
      3 CAE          0.5240    -1.9440    -0.0410 ca         1 5SG      -0.121000
      4 CAJ         -0.4340    -0.9070    -0.0340 ca         1 5SG      -0.067000
      5 CAG         -1.8250    -1.1680     0.0190 ca         1 5SG       0.349900
      6 NAH         -2.7470    -0.2450     0.0280 nb         1 5SG      -0.655000
      7 CAC         -2.3490     1.0460    -0.0150 ca         1 5SG       0.306900
      8 CAF         -1.0390     1.4350    -0.0680 ca         1 5SG      -0.119000
      9 CAK         -0.0300     0.4470    -0.0790 ca         1 5SG      -0.035000
     10 CAI          1.3590     0.7440    -0.1310 ca         1 5SG       0.152100
     11 OAA          1.6940     2.0440    -0.1720 oh         1 5SG      -0.529100
     12 H1           3.3350    -0.0610    -0.1750 ha         1 5SG       0.115000
     13 H2           2.6020    -2.4030    -0.0960 ha         1 5SG       0.115000
     14 H3           0.1990    -2.9760    -0.0050 ha         1 5SG       0.121000
     15 H4          -2.1590    -2.2020     0.0540 h4         1 5SG       0.019100
     16 H5          -3.1380     1.7880    -0.0050 h4         1 5SG       0.019100
     17 H6          -0.7950     2.4870    -0.1010 ha         1 5SG       0.135000
     18 H7           2.6520     2.1480    -0.1990 ho         1 5SG       0.469000
@<TRIPOS>BOND
     1     1     2 ar  
     2     1    10 ar  
     3     1    12 1   
     4     2     3 ar  
     5     2    13 1   
     6     3     4 ar  
     7     3    14 1   
     8     4     5 ar  
     9     4     9 ar  
    10     5     6 ar  
    11     5    15 1   
    12     6     7 ar  
    13     7     8 ar  
    14     7    16 1   
    15     8     9 ar  
    16     8    17 1   
    17     9    10 ar  
    18    10    11 1   
    19    11    18 1   
@<TRIPOS>SUBSTRUCTURE
     1 5SG         1 TEMP              0 ****  ****    0 ROOT
