@<TRIPOS>MOLECULE
5SH
   21    22     1     0     0
SMALL
abcg2


@<TRIPOS>ATOM
      1 CAF         -1.4730     1.1450    -0.3770 ca         1 5SH      -0.093000
      2 CAB         -2.8600     1.1450    -0.3860 ca         1 5SH      -0.112000
      3 CAA         -3.5610     0.0010    -0.0270 ca         1 5SH      -0.101000
      4 CAC         -2.8650    -1.1440     0.3370 ca         1 5SH      -0.112000
      5 CAG         -1.4780    -1.1470     0.3400 ca         1 5SH      -0.093000
      6 CAK         -0.7640    -0.0010    -0.0160 cp         1 5SH      -0.047000
      7 CAL          0.7100    -0.0020    -0.0100 cp         1 5SH       0.009000
      8 CAH          1.4400     1.1230     0.3710 ca         1 5SH      -0.157000
      9 CAD          2.8240     1.0690     0.3600 ca         1 5SH       0.333900
     10 NAJ          3.5180    -0.0050     0.0010 nb         1 5SH      -0.663000
     11 CAE          2.8250    -1.0780    -0.3630 ca         1 5SH       0.333900
     12 CAI          1.4410    -1.1290    -0.3860 ca         1 5SH      -0.157000
     13 H1          -0.9400     2.0390    -0.6760 ha         1 5SH       0.115000
     14 H2          -3.3930     2.0400    -0.6800 ha         1 5SH       0.115000
     15 H3          -4.6430     0.0020    -0.0310 ha         1 5SH       0.114000
     16 H4          -3.4020    -2.0380     0.6270 ha         1 5SH       0.115000
     17 H5          -0.9490    -2.0410     0.6440 ha         1 5SH       0.115000
     18 H6           0.9440     2.0280     0.6960 ha         1 5SH       0.124000
     19 H7           3.3970     1.9390     0.6620 h4         1 5SH       0.018100
     20 H8           3.3990    -1.9480    -0.6610 h4         1 5SH       0.018100
     21 H9           0.9470    -2.0330    -0.7150 ha         1 5SH       0.124000
@<TRIPOS>BOND
     1     1     2 ar  
     2     1     6 ar  
     3     1    13 1   
     4     2     3 ar  
     5     2    14 1   
     6     3     4 ar  
     7     3    15 1   
     8     4     5 ar  
     9     4    16 1   
    10     5     6 ar  
    11     5    17 1   
    12     6     7 1   
    13     7     8 ar  
    14     7    12 ar  
    15     8     9 ar  
    16     8    18 1   
    17     9    10 ar  
    18     9    19 1   
    19    10    11 ar  
    20    11    12 ar  
    21    11    20 1   
    22    12    21 1   
@<TRIPOS>SUBSTRUCTURE
     1 5SH         1 TEMP              0 ****  ****    0 ROOT
