@<TRIPOS>MOLECULE
5SH
   21    22     1     0     0
SMALL
No Charge or Current Charge


@<TRIPOS>ATOM
      1 CAF         -1.5030     1.1690    -0.3460 ca         1 5SH      -0.093000
      2 CAB         -2.9090     1.1700    -0.3520 ca         1 5SH      -0.112000
      3 CAA         -3.6150     0.0010    -0.0270 ca         1 5SH      -0.101000
      4 CAC         -2.9130    -1.1690     0.3030 ca         1 5SH      -0.112000
      5 CAG         -1.5080    -1.1700     0.3080 ca         1 5SH      -0.093000
      6 CAK         -0.7720    -0.0010    -0.0160 cp         1 5SH      -0.047000
      7 CAL          0.7270    -0.0020    -0.0100 cp         1 5SH       0.009000
      8 CAH          1.4760     1.1470     0.3370 ca         1 5SH      -0.157000
      9 CAD          2.8800     1.1030     0.3310 ca         1 5SH       0.333900
     10 NAJ          3.5810    -0.0050     0.0010 nb         1 5SH      -0.663000
     11 CAE          2.8810    -1.1120    -0.3340 ca         1 5SH       0.333900
     12 CAI          1.4770    -1.1530    -0.3510 ca         1 5SH      -0.157000
     13 H1          -0.9780     2.0820    -0.6140 ha         1 5SH       0.115000
     14 H2          -3.4500     2.0770    -0.6120 ha         1 5SH       0.115000
     15 H3          -4.7030     0.0020    -0.0320 ha         1 5SH       0.114000
     16 H4          -3.4580    -2.0750     0.5580 ha         1 5SH       0.115000
     17 H5          -0.9860    -2.0840     0.5800 ha         1 5SH       0.115000
     18 H6           0.9810     2.0690     0.6260 ha         1 5SH       0.124000
     19 H7           3.4630     1.9830     0.6010 h4         1 5SH       0.018100
     20 H8           3.4640    -1.9930    -0.6000 h4         1 5SH       0.018100
     21 H9           0.9820    -2.0740    -0.6440 ha         1 5SH       0.124000
@<TRIPOS>BOND
     1     1     2 ar  
     2     1     6 ar  
     3     1    13 1   
     4     2     3 ar  
     5     2    14 1   
     6     3     4 ar  
     7     3    15 1   
     8     4     5 ar  
     9     4    16 1   
    10     5     6 ar  
    11     5    17 1   
    12     6     7 1   
    13     7     8 ar  
    14     7    12 ar  
    15     8     9 ar  
    16     8    18 1   
    17     9    10 ar  
    18     9    19 1   
    19    10    11 ar  
    20    11    12 ar  
    21    11    20 1   
    22    12    21 1   
@<TRIPOS>SUBSTRUCTURE
     1 5SH         1 TEMP              0 ****  ****    0 ROOT
