@<TRIPOS>MOLECULE
5SJ
   31    32     1     0     0
SMALL
No Charge or Current Charge


@<TRIPOS>ATOM
      1 CAA          6.0440     0.8240    -0.0450 c3         1 5SJ      -0.098100
      2 CAH          5.1110    -0.3960     0.0220 c3         1 5SJ       0.169600
      3 OAK          3.7600     0.0910    -0.0340 os         1 5SJ      -0.448100
      4 CAL          2.7390    -0.8240     0.0100 c          1 5SJ       0.615700
      5 OAC          2.9200    -2.0320     0.0960 o          1 5SJ      -0.499000
      6 CAN          1.3620    -0.2030    -0.0550 ca         1 5SJ      -0.159600
      7 CAG          0.2160    -1.0300    -0.0180 ca         1 5SJ      -0.064000
      8 CAP         -1.0710    -0.4660    -0.0770 ca         1 5SJ      -0.093000
      9 NAI         -2.2210    -1.2910    -0.0390 ns         1 5SJ      -0.137000
     10 C           -3.5410    -0.8750    -0.0360 c          1 5SJ       0.573000
     11 O           -4.4720    -1.6750    -0.0510 o          1 5SJ      -0.538000
     12 CA          -3.7610     0.6860    -0.0220 c6         1 5SJ       0.133500
     13 CB          -4.3940     1.1170     1.3260 c3         1 5SJ      -0.124100
     14 N           -2.5100     1.4830    -0.2460 nu         1 5SJ      -0.931200
     15 CAO         -1.2280     0.9310    -0.1770 ca         1 5SJ       0.293000
     16 CAF         -0.0980     1.7570    -0.2140 ca         1 5SJ      -0.176000
     17 CAE          1.1910     1.1980    -0.1530 ca         1 5SJ      -0.033000
     18 H1           5.8890     1.3780    -0.9790 hc         1 5SJ       0.046700
     19 H2           5.8580     1.4980     0.7990 hc         1 5SJ       0.046700
     20 H3           7.0910     0.5030    -0.0050 hc         1 5SJ       0.046700
     21 H4           5.3230    -1.0650    -0.8230 h1         1 5SJ       0.049200
     22 H5           5.2920    -0.9450     0.9560 h1         1 5SJ       0.049200
     23 H6           0.3230    -2.1110     0.0570 ha         1 5SJ       0.139000
     24 H7          -2.0650    -2.2910    -0.0340 hn         1 5SJ       0.165000
     25 H8          -4.4890     0.8920    -0.8220 h1         1 5SJ       0.093700
     26 H9          -3.7240     0.9030     2.1680 hc         1 5SJ       0.052033
     27 H10         -4.6140     2.1910     1.3370 hc         1 5SJ       0.052033
     28 H11         -5.3370     0.5870     1.5070 hc         1 5SJ       0.052033
     29 H12         -2.5690     2.5030    -0.2970 hn         1 5SJ       0.474000
     30 H13         -0.2150     2.8340    -0.2920 ha         1 5SJ       0.119000
     31 H14          2.0510     1.8640    -0.1850 ha         1 5SJ       0.132000
@<TRIPOS>BOND
     1     1     2 1   
     2     1    18 1   
     3     1    19 1   
     4     1    20 1   
     5     2     3 1   
     6     2    21 1   
     7     2    22 1   
     8     3     4 1   
     9     4     5 2   
    10     4     6 1   
    11     6     7 ar  
    12     6    17 ar  
    13     7     8 ar  
    14     7    23 1   
    15     8     9 1   
    16     8    15 ar  
    17     9    10 1   
    18     9    24 1   
    19    10    11 2   
    20    10    12 1   
    21    12    13 1   
    22    12    14 1   
    23    12    25 1   
    24    13    26 1   
    25    13    27 1   
    26    13    28 1   
    27    14    15 1   
    28    14    29 1   
    29    15    16 ar  
    30    16    17 ar  
    31    16    30 1   
    32    17    31 1   
@<TRIPOS>SUBSTRUCTURE
     1 5SJ         1 TEMP              0 ****  ****    0 ROOT
