@<TRIPOS>MOLECULE
5SJ
   31    32     1     0     0
SMALL
abcg2


@<TRIPOS>ATOM
      1 CAA          5.8540     0.8180     0.0830 c3         1 5SJ      -0.098100
      2 CAH          4.9190    -0.3600     0.2040 c3         1 5SJ       0.169600
      3 OAK          3.5780     0.1240     0.0370 os         1 5SJ      -0.448100
      4 CAL          2.5880    -0.7540     0.0930 c          1 5SJ       0.615700
      5 OAC          2.7600    -1.9390     0.2770 o          1 5SJ      -0.499000
      6 CAN          1.2610    -0.1350    -0.0910 ca         1 5SJ      -0.159600
      7 CAG          0.1390    -0.9650    -0.0560 ca         1 5SJ      -0.064000
      8 CAP         -1.1250    -0.4430    -0.2250 ca         1 5SJ      -0.093000
      9 NAI         -2.2550    -1.2600    -0.2580 ns         1 5SJ      -0.137000
     10 C           -3.5290    -0.8110    -0.1860 c          1 5SJ       0.573000
     11 O           -4.4910    -1.5540    -0.2360 o          1 5SJ      -0.538000
     12 CA          -3.6700     0.6840     0.0370 c6         1 5SJ       0.133500
     13 CB          -3.7590     0.9720     1.5380 c3         1 5SJ      -0.124100
     14 N           -2.5830     1.3830    -0.6210 nu         1 5SJ      -0.931200
     15 CAO         -1.3070     0.9360    -0.4240 ca         1 5SJ       0.293000
     16 CAF         -0.1830     1.7610    -0.4560 ca         1 5SJ      -0.176000
     17 CAE          1.0850     1.2330    -0.2990 ca         1 5SJ      -0.033000
     18 H1           5.7780     1.2940    -0.8940 hc         1 5SJ       0.046700
     19 H2           5.6610     1.5660     0.8520 hc         1 5SJ       0.046700
     20 H3           6.8800     0.4710     0.2050 hc         1 5SJ       0.046700
     21 H4           5.1370    -1.1110    -0.5570 h1         1 5SJ       0.049200
     22 H5           5.0180    -0.8350     1.1830 h1         1 5SJ       0.049200
     23 H6           0.2560    -2.0310     0.0940 ha         1 5SJ       0.139000
     24 H7          -2.1190    -2.2600    -0.3220 hn         1 5SJ       0.165000
     25 H8          -4.6000     0.9920    -0.4420 h1         1 5SJ       0.093700
     26 H9          -2.8460     0.6750     2.0560 hc         1 5SJ       0.052033
     27 H10         -3.9130     2.0390     1.7000 hc         1 5SJ       0.052033
     28 H11         -4.5980     0.4390     1.9860 hc         1 5SJ       0.052033
     29 H12         -2.6980     2.3840    -0.6680 hn         1 5SJ       0.474000
     30 H13         -0.3110     2.8250    -0.6080 ha         1 5SJ       0.119000
     31 H14          1.9330     1.9020    -0.3300 ha         1 5SJ       0.132000
@<TRIPOS>BOND
     1     1     2 1   
     2     1    18 1   
     3     1    19 1   
     4     1    20 1   
     5     2     3 1   
     6     2    21 1   
     7     2    22 1   
     8     3     4 1   
     9     4     5 2   
    10     4     6 1   
    11     6     7 ar  
    12     6    17 ar  
    13     7     8 ar  
    14     7    23 1   
    15     8     9 1   
    16     8    15 ar  
    17     9    10 1   
    18     9    24 1   
    19    10    11 2   
    20    10    12 1   
    21    12    13 1   
    22    12    14 1   
    23    12    25 1   
    24    13    26 1   
    25    13    27 1   
    26    13    28 1   
    27    14    15 1   
    28    14    29 1   
    29    15    16 ar  
    30    16    17 ar  
    31    16    30 1   
    32    17    31 1   
@<TRIPOS>SUBSTRUCTURE
     1 5SJ         1 TEMP              0 ****  ****    0 ROOT
