@<TRIPOS>MOLECULE
5SK
   36    38     1     0     0
SMALL
No Charge or Current Charge


@<TRIPOS>ATOM
      1 CAA          4.1820    -0.3850     1.8210 c3         1 5SK      -0.089100
      2 CAH          4.4970    -0.0840     0.3380 c3         1 5SK      -0.088400
      3 CAR          3.3490     0.6280    -0.4200 c3         1 5SK       0.237500
      4 CAC          3.7700     1.0490    -1.8410 c3         1 5SK      -0.113100
      5 NAL          2.1860    -0.2640    -0.5160 nu         1 5SK      -0.913100
      6 CAN          0.8760     0.0420    -0.3130 cc         1 5SK       0.690900
      7 NAK          0.5630     1.3190    -0.1780 nd         1 5SK      -0.784000
      8 CAO         -0.8240     1.5200     0.0260 ca         1 5SK       0.303000
      9 CAF         -1.2360     2.8570     0.1800 ca         1 5SK      -0.089000
     10 CAD         -2.5830     3.1850     0.3870 ca         1 5SK      -0.098000
     11 CAE         -3.5440     2.1680     0.4440 ca         1 5SK      -0.113000
     12 CAG         -3.1610     0.8260     0.2930 ca         1 5SK      -0.102000
     13 CAP         -1.8030     0.4800     0.0820 ca         1 5SK      -0.093000
     14 NAS         -1.3420    -0.8340    -0.0780 na         1 5SK       0.031200
     15 CAQ         -0.0240    -1.0690    -0.2740 cc         1 5SK      -0.184000
     16 NAJ          0.1730    -2.3690    -0.3960 nd         1 5SK      -0.083000
     17 NAI         -1.0570    -2.9870    -0.2750 nd         1 5SK      -0.376700
     18 CAM         -1.9880    -2.0590    -0.0800 cc         1 5SK       0.351800
     19 CAB         -3.4470    -2.3790     0.0940 c3         1 5SK      -0.104400
     20 H1           3.9320     0.5370     2.3590 hc         1 5SK       0.037367
     21 H2           3.3380    -1.0790     1.9130 hc         1 5SK       0.037367
     22 H3           5.0510    -0.8410     2.3090 hc         1 5SK       0.037367
     23 H4           5.3890     0.5540     0.3020 hc         1 5SK       0.045700
     24 H5           4.7600    -1.0170    -0.1750 hc         1 5SK       0.045700
     25 H6           3.0970     1.5410     0.1410 h1         1 5SK       0.081700
     26 H7           4.0530     0.1760    -2.4420 hc         1 5SK       0.044367
     27 H8           2.9480     1.5670    -2.3490 hc         1 5SK       0.044367
     28 H9           4.6260     1.7320    -1.8020 hc         1 5SK       0.044367
     29 H10          2.3500    -1.2650    -0.5720 hn         1 5SK       0.516000
     30 H11         -0.4960     3.6510     0.1370 ha         1 5SK       0.133000
     31 H12         -2.8810     4.2250     0.5040 ha         1 5SK       0.120000
     32 H13         -4.5900     2.4200     0.6050 ha         1 5SK       0.119000
     33 H14         -3.9470     0.0860     0.3450 ha         1 5SK       0.121000
     34 H15         -3.8090    -2.0460     1.0730 hc         1 5SK       0.063033
     35 H16         -4.0490    -1.9150    -0.6950 hc         1 5SK       0.063033
     36 H17         -3.6150    -3.4610     0.0370 hc         1 5SK       0.063033
@<TRIPOS>BOND
     1     1     2 1   
     2     1    20 1   
     3     1    21 1   
     4     1    22 1   
     5     2     3 1   
     6     2    23 1   
     7     2    24 1   
     8     3     4 1   
     9     3     5 1   
    10     3    25 1   
    11     4    26 1   
    12     4    27 1   
    13     4    28 1   
    14     5     6 1   
    15     5    29 1   
    16     6     7 2   
    17     6    15 1   
    18     7     8 1   
    19     8     9 ar  
    20     8    13 ar  
    21     9    10 ar  
    22     9    30 1   
    23    10    11 ar  
    24    10    31 1   
    25    11    12 ar  
    26    11    32 1   
    27    12    13 ar  
    28    12    33 1   
    29    13    14 1   
    30    14    15 1   
    31    14    18 1   
    32    15    16 2   
    33    16    17 1   
    34    17    18 2   
    35    18    19 1   
    36    19    34 1   
    37    19    35 1   
    38    19    36 1   
@<TRIPOS>SUBSTRUCTURE
     1 5SK         1 TEMP              0 ****  ****    0 ROOT
