@<TRIPOS>MOLECULE
5SK
   36    38     1     0     0
SMALL
abcg2


@<TRIPOS>ATOM
      1 CAA          4.4100    -0.3850     1.7570 c3         1 5SK      -0.089100
      2 CAH          4.5500    -0.0260     0.2840 c3         1 5SK      -0.088400
      3 CAR          3.2890     0.5810    -0.3240 c3         1 5SK       0.237500
      4 CAC          3.5110     1.0320    -1.7630 c3         1 5SK      -0.113100
      5 NAL          2.2000    -0.3770    -0.2380 nu         1 5SK      -0.913100
      6 CAN          0.9130    -0.0320    -0.1440 cc         1 5SK       0.690900
      7 NAK          0.5280     1.2020    -0.0350 nd         1 5SK      -0.784000
      8 CAO         -0.8100     1.4800     0.0830 ca         1 5SK       0.303000
      9 CAF         -1.1980     2.8210     0.2100 ca         1 5SK      -0.089000
     10 CAD         -2.5250     3.1760     0.3250 ca         1 5SK      -0.098000
     11 CAE         -3.5140     2.1950     0.3110 ca         1 5SK      -0.113000
     12 CAG         -3.1670     0.8620     0.1870 ca         1 5SK      -0.102000
     13 CAP         -1.8280     0.5040     0.0770 ca         1 5SK      -0.093000
     14 NAS         -1.3830    -0.8180    -0.0460 na         1 5SK       0.031200
     15 CAQ         -0.0570    -1.1050    -0.1520 cc         1 5SK      -0.184000
     16 NAJ          0.1280    -2.3900    -0.2530 nd         1 5SK      -0.083000
     17 NAI         -1.0860    -2.9660    -0.2120 nd         1 5SK      -0.376700
     18 CAM         -2.0000    -2.0360    -0.0880 cc         1 5SK       0.351800
     19 CAB         -3.4520    -2.3080    -0.0070 c3         1 5SK      -0.104400
     20 H1           4.1080     0.4840     2.3440 hc         1 5SK       0.037367
     21 H2           3.6660    -1.1660     1.9180 hc         1 5SK       0.037367
     22 H3           5.3560    -0.7440     2.1610 hc         1 5SK       0.037367
     23 H4           5.3570     0.6990     0.1590 hc         1 5SK       0.045700
     24 H5           4.8430    -0.9080    -0.2950 hc         1 5SK       0.045700
     25 H6           2.9950     1.4460     0.2740 h1         1 5SK       0.081700
     26 H7           3.8330     0.1970    -2.3890 hc         1 5SK       0.044367
     27 H8           2.5960     1.4450    -2.1890 hc         1 5SK       0.044367
     28 H9           4.2790     1.8050    -1.8090 hc         1 5SK       0.044367
     29 H10          2.4090    -1.3490    -0.4140 hn         1 5SK       0.516000
     30 H11         -0.4200     3.5730     0.2170 ha         1 5SK       0.133000
     31 H12         -2.7960     4.2190     0.4240 ha         1 5SK       0.120000
     32 H13         -4.5580     2.4660     0.3980 ha         1 5SK       0.119000
     33 H14         -3.9470     0.1170     0.1770 ha         1 5SK       0.121000
     34 H15         -3.8840    -1.9550     0.9300 hc         1 5SK       0.063033
     35 H16         -4.0000    -1.8480    -0.8300 hc         1 5SK       0.063033
     36 H17         -3.6020    -3.3840    -0.0640 hc         1 5SK       0.063033
@<TRIPOS>BOND
     1     1     2 1   
     2     1    20 1   
     3     1    21 1   
     4     1    22 1   
     5     2     3 1   
     6     2    23 1   
     7     2    24 1   
     8     3     4 1   
     9     3     5 1   
    10     3    25 1   
    11     4    26 1   
    12     4    27 1   
    13     4    28 1   
    14     5     6 1   
    15     5    29 1   
    16     6     7 2   
    17     6    15 1   
    18     7     8 1   
    19     8     9 ar  
    20     8    13 ar  
    21     9    10 ar  
    22     9    30 1   
    23    10    11 ar  
    24    10    31 1   
    25    11    12 ar  
    26    11    32 1   
    27    12    13 ar  
    28    12    33 1   
    29    13    14 1   
    30    14    15 1   
    31    14    18 1   
    32    15    16 2   
    33    16    17 1   
    34    17    18 2   
    35    18    19 1   
    36    19    34 1   
    37    19    35 1   
    38    19    36 1   
@<TRIPOS>SUBSTRUCTURE
     1 5SK         1 TEMP              0 ****  ****    0 ROOT
