@<TRIPOS>MOLECULE
5SL
   49    53     1     0     0
SMALL
abcg2


@<TRIPOS>ATOM
      1 N3           3.2810    -0.3020    -0.1420 nu         1 5SL      -0.911100
      2 C4          -5.9450    -1.1950    -0.8470 ca         1 5SL      -0.090000
      3 N2          -2.9050    -0.5200     2.4450 nc         1 5SL      -0.376300
      4 C7          -7.0520     1.1820     0.0250 ca         1 5SL      -0.112500
      5 C6          -6.2760     0.4200     0.8830 ca         1 5SL      -0.090000
      6 C9          -3.4520    -1.0560     1.3990 cd         1 5SL       0.559300
      7 C13          1.4180     1.3060    -0.6070 c5         1 5SL      -0.100400
      8 C20          5.8600     1.8770     0.8490 ca         1 5SL       0.196900
      9 C8          -4.8420    -1.5870     1.3890 c3         1 5SL      -0.055400
     10 N5           7.8030    -0.4190    -0.9420 na         1 5SL      -0.157100
     11 C18          6.0060    -1.4820    -1.3470 cc         1 5SL       0.385800
     12 C16          4.4940     0.2370    -0.0020 ca         1 5SL       0.457900
     13 C19          6.8530     0.3040    -0.3260 ca         1 5SL       0.158500
     14 C2          -7.2890     0.7710    -1.2870 ca         1 5SL      -0.068300
     15 C3          -6.7240    -0.4290    -1.7060 ca         1 5SL      -0.112500
     16 C5          -5.7130    -0.7810     0.4580 ca         1 5SL      -0.092300
     17 N1          -2.6410    -1.0680     0.3010 nd         1 5SL      -0.714000
     18 C10         -1.5630    -0.5030     0.7330 cc         1 5SL       0.492300
     19 O1          -1.6560    -0.1510     2.0090 os         1 5SL      -0.091700
     20 C11         -0.3200    -0.2070    -0.0160 c5         1 5SL      -0.109000
     21 C12         -0.0460     1.2960    -0.1980 c5         1 5SL      -0.072400
     22 C14          2.0600     0.2950     0.3510 c5         1 5SL       0.231500
     23 C15          0.9710    -0.7690     0.6170 c5         1 5SL      -0.085400
     24 C17          5.6480    -0.3570    -0.5660 ca         1 5SL      -0.398900
     25 N4           7.2980    -1.4970    -1.5600 nd         1 5SL      -0.520100
     26 N6           7.0070     1.4300     0.3810 nb         1 5SL      -0.228000
     27 N7           4.6380     1.3630     0.6990 nb         1 5SL      -0.307000
     28 H1           3.1900    -1.0980    -0.7540 hn         1 5SL       0.494000
     29 H3          -7.4830     2.1100     0.3810 ha         1 5SL       0.112000
     30 H4          -6.1080     0.7620     1.8990 ha         1 5SL       0.115500
     31 H5           1.5230     0.9590    -1.6390 hc         1 5SL       0.060200
     32 H6           1.8810     2.2900    -0.5380 hc         1 5SL       0.060200
     33 H7           5.9060     2.7900     1.4340 h5         1 5SL       0.047100
     34 H8          -4.8110    -2.6310     1.0690 hc         1 5SL       0.073700
     35 H9          -5.2380    -1.5690     2.4050 hc         1 5SL       0.073700
     36 H10          8.7930    -0.2330    -0.9780 hn         1 5SL       0.388000
     37 H11          5.3780    -2.2600    -1.7530 h4         1 5SL       0.045800
     38 H12         -7.6280     2.5550    -2.4410 hc         1 5SL       0.042700
     39 H13         -8.3170     1.1000    -3.1530 hc         1 5SL       0.042700
     40 H14         -9.0870     1.8580    -1.7610 hc         1 5SL       0.042700
     41 H15         -6.8920    -0.7750    -2.7200 ha         1 5SL       0.112000
     42 H16         -0.4580    -0.6480    -1.0050 hc         1 5SL       0.085700
     43 H17         -0.1800     1.8340     0.7440 hc         1 5SL       0.063200
     44 H18         -0.7070     1.7480    -0.9370 hc         1 5SL       0.063200
     45 H19          2.3030     0.8030     1.2830 h1         1 5SL       0.094700
     46 H20          0.8670    -0.9400     1.6880 hc         1 5SL       0.062200
     47 H21          1.2240    -1.7310     0.1720 hc         1 5SL       0.062200
     48 H2          -5.5190    -2.1260    -1.1990 ha         1 5SL       0.115500
     49 C1          -8.1240     1.6100    -2.2100 c3         1 5SL      -0.047800
@<TRIPOS>BOND
     1     1    12 1   
     2     1    22 1   
     3     1    28 1   
     4     2    15 ar  
     5     2    16 ar  
     6     2    48 1   
     7     3     6 2   
     8     3    19 1   
     9     4     5 ar  
    10     4    14 ar  
    11     4    29 1   
    12     5    16 ar  
    13     5    30 1   
    14     6     9 1   
    15     6    17 1   
    16     7    21 1   
    17     7    22 1   
    18     7    31 1   
    19     7    32 1   
    20     8    26 ar  
    21     8    27 ar  
    22     8    33 1   
    23     9    16 1   
    24     9    34 1   
    25     9    35 1   
    26    10    13 1   
    27    10    25 1   
    28    10    36 1   
    29    11    24 1   
    30    11    25 2   
    31    11    37 1   
    32    12    24 ar  
    33    12    27 ar  
    34    13    24 ar  
    35    13    26 ar  
    36    14    15 ar  
    37    14    49 1   
    38    15    41 1   
    39    17    18 2   
    40    18    19 1   
    41    18    20 1   
    42    20    21 1   
    43    20    23 1   
    44    20    42 1   
    45    21    43 1   
    46    21    44 1   
    47    22    23 1   
    48    22    45 1   
    49    23    46 1   
    50    23    47 1   
    51    38    49 1   
    52    39    49 1   
    53    40    49 1   
@<TRIPOS>SUBSTRUCTURE
     1 5SL         1 TEMP              0 ****  ****    0 ROOT
