@<TRIPOS>MOLECULE
5SL
   49    53     1     0     0
SMALL
No Charge or Current Charge


@<TRIPOS>ATOM
      1 N3           3.3860    -0.7240     0.6810 nu         1 5SL      -0.911100
      2 C4          -5.9770    -0.7080    -0.7290 ca         1 5SL      -0.090000
      3 N2          -2.5480     0.0530     1.7240 nc         1 5SL      -0.376300
      4 C7          -6.9540     1.7170     0.2940 ca         1 5SL      -0.112500
      5 C6          -6.1020     0.9160     1.0750 ca         1 5SL      -0.090000
      6 C9          -3.2180    -0.9270     1.1390 cd         1 5SL       0.559300
      7 C13          1.9320    -0.2920    -1.2070 c5         1 5SL      -0.100400
      8 C20          4.7580     2.5470     1.1670 ca         1 5SL       0.196900
      9 C8          -4.6790    -1.1690     1.4090 c3         1 5SL      -0.055400
     10 N5           7.3340     1.0130    -0.8810 na         1 5SL      -0.157100
     11 C18          6.0630    -0.7200    -0.8360 cc         1 5SL       0.385800
     12 C16          4.2330     0.3750     0.6200 ca         1 5SL       0.457900
     13 C19          6.2550     1.4050    -0.1170 ca         1 5SL       0.158500
     14 C2          -7.3250     1.3080    -1.0000 ca         1 5SL      -0.068300
     15 C3          -6.8300     0.0930    -1.5090 ca         1 5SL      -0.112500
     16 C5          -5.6110    -0.3020     0.5680 ca         1 5SL      -0.092300
     17 N1          -2.4800    -1.6970     0.2700 nd         1 5SL      -0.714000
     18 C10         -1.2930    -1.1340     0.3400 cc         1 5SL       0.492300
     19 O1          -1.2460    -0.0720     1.1950 os         1 5SL      -0.091700
     20 C11         -0.0380    -1.5360    -0.4100 c5         1 5SL      -0.109000
     21 C12          0.4020    -0.4230    -1.4310 c5         1 5SL      -0.072400
     22 C14          1.9780    -0.3910     0.3370 c5         1 5SL       0.231500
     23 C15          1.1950    -1.7120     0.5460 c5         1 5SL      -0.085400
     24 C17          5.4350     0.3190    -0.0720 ca         1 5SL      -0.398900
     25 N4           7.2340    -0.3080    -1.3410 nd         1 5SL      -0.520100
     26 N6           5.9400     2.5550     0.5030 nb         1 5SL      -0.228000
     27 N7           3.8860     1.5120     1.2580 nb         1 5SL      -0.307000
     28 H1           3.7960    -1.5750     0.3030 hn         1 5SL       0.494000
     29 H3          -7.3250     2.6570     0.6970 ha         1 5SL       0.112000
     30 H4          -5.8220     1.2470     2.0730 ha         1 5SL       0.115500
     31 H5           2.4780    -1.1030    -1.7060 hc         1 5SL       0.060200
     32 H6           2.3290     0.6580    -1.5830 hc         1 5SL       0.060200
     33 H7           4.4800     3.4670     1.6790 h5         1 5SL       0.047100
     34 H8          -4.9040    -2.2280     1.2350 hc         1 5SL       0.073700
     35 H9          -4.8780    -1.0060     2.4750 hc         1 5SL       0.073700
     36 H10          8.1350     1.6000    -1.1080 hn         1 5SL       0.388000
     37 H11          5.7500    -1.7320    -1.0560 h4         1 5SL       0.045800
     38 H12         -7.6640     2.8880    -2.4470 hc         1 5SL       0.042700
     39 H13         -8.8460     1.5710    -2.5330 hc         1 5SL       0.042700
     40 H14         -8.9370     2.7520    -1.2210 hc         1 5SL       0.042700
     41 H15         -7.1040    -0.2320    -2.5100 ha         1 5SL       0.112000
     42 H16         -0.2280    -2.4780    -0.9360 hc         1 5SL       0.085700
     43 H17         -0.0980     0.5340    -1.2330 hc         1 5SL       0.063200
     44 H18          0.1590    -0.6920    -2.4660 hc         1 5SL       0.063200
     45 H19          1.5310     0.4670     0.8630 h1         1 5SL       0.094700
     46 H20          0.9120    -1.8660     1.5940 hc         1 5SL       0.062200
     47 H21          1.7760    -2.5930     0.2450 hc         1 5SL       0.062200
     48 H2          -5.6000    -1.6440    -1.1350 ha         1 5SL       0.115500
     49 C1          -8.2430     2.1770    -1.8460 c3         1 5SL      -0.047800
@<TRIPOS>BOND
     1     1    12 1   
     2     1    22 1   
     3     1    28 1   
     4     2    15 ar  
     5     2    16 ar  
     6     2    48 1   
     7     3     6 2   
     8     3    19 1   
     9     4     5 ar  
    10     4    14 ar  
    11     4    29 1   
    12     5    16 ar  
    13     5    30 1   
    14     6     9 1   
    15     6    17 1   
    16     7    21 1   
    17     7    22 1   
    18     7    31 1   
    19     7    32 1   
    20     8    26 ar  
    21     8    27 ar  
    22     8    33 1   
    23     9    16 1   
    24     9    34 1   
    25     9    35 1   
    26    10    13 1   
    27    10    25 1   
    28    10    36 1   
    29    11    24 1   
    30    11    25 2   
    31    11    37 1   
    32    12    24 ar  
    33    12    27 ar  
    34    13    24 ar  
    35    13    26 ar  
    36    14    15 ar  
    37    14    49 1   
    38    15    41 1   
    39    17    18 2   
    40    18    19 1   
    41    18    20 1   
    42    20    21 1   
    43    20    23 1   
    44    20    42 1   
    45    21    43 1   
    46    21    44 1   
    47    22    23 1   
    48    22    45 1   
    49    23    46 1   
    50    23    47 1   
    51    38    49 1   
    52    39    49 1   
    53    40    49 1   
@<TRIPOS>SUBSTRUCTURE
     1 5SL         1 TEMP              0 ****  ****    0 ROOT
