@<TRIPOS>MOLECULE
5SM
   36    38     1     0     0
SMALL
No Charge or Current Charge


@<TRIPOS>ATOM
      1 N3           1.0740    -2.7300    -1.3550 nb         1 5SM      -0.299000
      2 C4           4.1100     2.1370    -0.6320 cc         1 5SM      -0.239000
      3 N2           4.1860     0.7660    -0.7570 na         1 5SM      -0.167500
      4 C7           1.2230    -0.0040    -0.8730 ca         1 5SM      -0.108000
      5 C6           2.2870    -0.7220    -1.4530 ca         1 5SM       0.258300
      6 C9           0.0190    -2.0870    -0.7960 ca         1 5SM       0.284900
      7 C13         -3.3480     1.3310     1.2860 ca         1 5SM       0.215000
      8 C8           0.0330    -0.6930    -0.5220 cp         1 5SM      -0.031000
      9 C2           4.9020     0.2960     0.3290 cc         1 5SM       0.433800
     10 N1           5.2740     1.2940     1.1140 nd         1 5SM      -0.677000
     11 C3           4.7850     2.4400     0.5220 cd         1 5SM       0.243900
     12 C5           3.5940    -0.0420    -1.8410 c3         1 5SM       0.030300
     13 N4           2.1940    -2.0540    -1.6790 nb         1 5SM      -0.298000
     14 C10         -1.1360     0.0080     0.1020 cp         1 5SM      -0.069000
     15 C11         -0.9470     1.1230     0.9570 ca         1 5SM      -0.048000
     16 C12         -2.0440     1.7770     1.5420 ca         1 5SM      -0.156000
     17 C14         -3.5710     0.2270     0.4420 ca         1 5SM      -0.217300
     18 C15         -2.4650    -0.4260    -0.1420 ca         1 5SM      -0.025000
     19 F1          -5.2660    -0.2010    -1.1660 f          1 5SM      -0.115500
     20 F2          -5.1440    -1.5520     0.5300 f          1 5SM      -0.115500
     21 H1           3.6020     2.7770    -1.3430 h4         1 5SM       0.151000
     22 H2           1.3170     1.0660    -0.7140 ha         1 5SM       0.132000
     23 H3          -0.8440    -2.7030    -0.5520 h4         1 5SM       0.035100
     24 H4          -5.7280     0.3410     0.6890 h2         1 5SM       0.076700
     25 H5           5.7780    -1.5840    -0.2370 hc         1 5SM       0.057367
     26 H6           5.7990    -1.2690     1.5070 hc         1 5SM       0.057367
     27 H7           4.2830    -1.7260     0.7120 hc         1 5SM       0.057367
     28 H8           4.9450     3.4190     0.9580 h4         1 5SM       0.036100
     29 H9           3.4060     0.6110    -2.7020 h1         1 5SM       0.072200
     30 H10          4.3260    -0.7960    -2.1570 h1         1 5SM       0.072200
     31 H11          0.0560     1.4780     1.1820 ha         1 5SM       0.124000
     32 H12         -1.8850     2.6280     2.1980 ha         1 5SM       0.143000
     33 H13         -2.6420    -1.2710    -0.8040 ha         1 5SM       0.139000
     34 F3          -4.3880     1.9760     1.8600 f          1 5SM      -0.165000
     35 C16         -4.9860    -0.2620     0.1550 c3         1 5SM       0.238600
     36 C1           5.2080    -1.1500     0.5930 c3         1 5SM      -0.126400
@<TRIPOS>BOND
     1     1     6 ar  
     2     1    13 ar  
     3     2     3 1   
     4     2    11 2   
     5     2    21 1   
     6     3     9 1   
     7     3    12 1   
     8     4     5 ar  
     9     4     8 ar  
    10     4    22 1   
    11     5    12 1   
    12     5    13 ar  
    13     6     8 ar  
    14     6    23 1   
    15     7    16 ar  
    16     7    17 ar  
    17     7    34 1   
    18     8    14 1   
    19     9    10 2   
    20     9    36 1   
    21    10    11 1   
    22    11    28 1   
    23    12    29 1   
    24    12    30 1   
    25    14    15 ar  
    26    14    18 ar  
    27    15    16 ar  
    28    15    31 1   
    29    16    32 1   
    30    17    18 ar  
    31    17    35 1   
    32    18    33 1   
    33    19    35 1   
    34    20    35 1   
    35    24    35 1   
    36    25    36 1   
    37    26    36 1   
    38    27    36 1   
@<TRIPOS>SUBSTRUCTURE
     1 5SM         1 TEMP              0 ****  ****    0 ROOT
