@<TRIPOS>MOLECULE
5SM
   36    38     1     0     0
SMALL
abcg2


@<TRIPOS>ATOM
      1 N3           1.4380    -1.8060     0.8320 nb         1 5SM      -0.299000
      2 C4           4.7430     1.5670     0.6610 cc         1 5SM      -0.239000
      3 N2           4.5340     0.6090    -0.2960 na         1 5SM      -0.167500
      4 C7           0.9300     0.4900    -0.5470 ca         1 5SM      -0.108000
      5 C6           2.1930    -0.0850    -0.4610 ca         1 5SM       0.258300
      6 C9           0.2190    -1.3080     0.7890 ca         1 5SM       0.284900
      7 C13         -4.0710     1.3600     0.0530 ca         1 5SM       0.215000
      8 C8          -0.1170    -0.1380     0.0990 cp         1 5SM      -0.031000
      9 C2           5.5430    -0.2930    -0.2000 cc         1 5SM       0.433800
     10 N1           6.3830     0.0470     0.7470 nd         1 5SM      -0.677000
     11 C3           5.8940     1.2030     1.2900 cd         1 5SM       0.243900
     12 C5           3.3800     0.5320    -1.1560 c3         1 5SM       0.030300
     13 N4           2.4220    -1.2030     0.2080 nb         1 5SM      -0.298000
     14 C10         -1.4910     0.3830     0.0830 cp         1 5SM      -0.069000
     15 C11         -1.7290     1.7570     0.0810 ca         1 5SM      -0.048000
     16 C12         -3.0200     2.2530     0.0700 ca         1 5SM      -0.156000
     17 C14         -3.8780    -0.0130     0.0550 ca         1 5SM      -0.217300
     18 C15         -2.5760    -0.4910     0.0690 ca         1 5SM      -0.025000
     19 F1          -5.5770    -0.9320    -1.2690 f          1 5SM      -0.115500
     20 F2          -4.6950    -2.2040     0.2690 f          1 5SM      -0.115500
     21 H1           4.0730     2.4010     0.7930 h4         1 5SM       0.151000
     22 H2           0.7850     1.3970    -1.1200 ha         1 5SM       0.132000
     23 H3          -0.5250    -1.8590     1.3520 h4         1 5SM       0.035100
     24 H4          -5.8640    -0.6520     0.6850 h2         1 5SM       0.076700
     25 H5           5.7690    -1.2150    -2.1260 hc         1 5SM       0.057367
     26 H6           6.5390    -2.0600    -0.7850 hc         1 5SM       0.057367
     27 H7           4.7860    -2.1340    -0.9870 hc         1 5SM       0.057367
     28 H8           6.3970     1.7120     2.0980 h4         1 5SM       0.036100
     29 H9           3.1290     1.5330    -1.5070 h1         1 5SM       0.072200
     30 H10          3.6350    -0.0550    -2.0390 h1         1 5SM       0.072200
     31 H11         -0.9030     2.4550     0.1120 ha         1 5SM       0.124000
     32 H12         -3.2090     3.3180     0.0810 ha         1 5SM       0.143000
     33 H13         -2.4030    -1.5580     0.0550 ha         1 5SM       0.139000
     34 F3          -5.3230     1.8300     0.0420 f          1 5SM      -0.165000
     35 C16         -5.0660    -0.9270    -0.0040 c3         1 5SM       0.238600
     36 C1           5.6600    -1.4880    -1.0740 c3         1 5SM      -0.126400
@<TRIPOS>BOND
     1     1     6 ar  
     2     1    13 ar  
     3     2     3 1   
     4     2    11 2   
     5     2    21 1   
     6     3     9 1   
     7     3    12 1   
     8     4     5 ar  
     9     4     8 ar  
    10     4    22 1   
    11     5    12 1   
    12     5    13 ar  
    13     6     8 ar  
    14     6    23 1   
    15     7    16 ar  
    16     7    17 ar  
    17     7    34 1   
    18     8    14 1   
    19     9    10 2   
    20     9    36 1   
    21    10    11 1   
    22    11    28 1   
    23    12    29 1   
    24    12    30 1   
    25    14    15 ar  
    26    14    18 ar  
    27    15    16 ar  
    28    15    31 1   
    29    16    32 1   
    30    17    18 ar  
    31    17    35 1   
    32    18    33 1   
    33    19    35 1   
    34    20    35 1   
    35    24    35 1   
    36    25    36 1   
    37    26    36 1   
    38    27    36 1   
@<TRIPOS>SUBSTRUCTURE
     1 5SM         1 TEMP              0 ****  ****    0 ROOT
