@<TRIPOS>MOLECULE
5SN
   26    28     1     0     0
SMALL
No Charge or Current Charge


@<TRIPOS>ATOM
      1 CAA          2.3300     2.7540     0.0210 c3         1 5SN      -0.049800
      2 CAJ          1.1890     1.7630     0.0100 cc         1 5SN      -0.051300
      3 CAM          1.3930     0.2980    -0.0090 ca         1 5SN      -0.061000
      4 CAE          2.7150    -0.2090    -0.0190 ca         1 5SN      -0.077000
      5 CAC          2.9620    -1.5870    -0.0380 ca         1 5SN      -0.119000
      6 CAD          1.8920    -2.4830    -0.0480 ca         1 5SN      -0.082000
      7 CAF          0.5750    -2.0030    -0.0390 ca         1 5SN      -0.131000
      8 CAN          0.2950    -0.6130    -0.0180 ca         1 5SN       0.001000
      9 NAO         -1.0250    -0.1030    -0.0080 na         1 5SN      -0.000800
     10 CAK         -2.2640    -0.7130    -0.0110 cc         1 5SN       0.343800
     11 CAB         -2.6410    -2.1700    -0.0220 c3         1 5SN      -0.103400
     12 NAH         -3.1660     0.2810     0.0020 nd         1 5SN      -0.372700
     13 NAI         -2.5210     1.5230     0.0130 nd         1 5SN      -0.086000
     14 CAL         -1.1870     1.2380     0.0070 cd         1 5SN      -0.099000
     15 CAG         -0.1240     2.1940     0.0160 cd         1 5SN      -0.077000
     16 H1           2.9570     2.6390    -0.8710 hc         1 5SN       0.049367
     17 H2           1.9670     3.7880     0.0350 hc         1 5SN       0.049367
     18 H3           2.9610     2.6160     0.9070 hc         1 5SN       0.049367
     19 H4           3.5710     0.4590    -0.0120 ha         1 5SN       0.121000
     20 H5           3.9850    -1.9580    -0.0450 ha         1 5SN       0.122000
     21 H6           2.0810    -3.5550    -0.0640 ha         1 5SN       0.120000
     22 H7          -0.2060    -2.7490    -0.0480 ha         1 5SN       0.127000
     23 H8          -2.2540    -2.6840     0.8640 hc         1 5SN       0.060367
     24 H9          -3.7310    -2.2860    -0.0150 hc         1 5SN       0.060367
     25 H10         -2.2690    -2.6660    -0.9250 hc         1 5SN       0.060367
     26 H11         -0.3540     3.2550     0.0300 ha         1 5SN       0.146000
@<TRIPOS>BOND
     1     1     2 1   
     2     1    16 1   
     3     1    17 1   
     4     1    18 1   
     5     2     3 1   
     6     2    15 2   
     7     3     4 ar  
     8     3     8 ar  
     9     4     5 ar  
    10     4    19 1   
    11     5     6 ar  
    12     5    20 1   
    13     6     7 ar  
    14     6    21 1   
    15     7     8 ar  
    16     7    22 1   
    17     8     9 1   
    18     9    10 1   
    19     9    14 1   
    20    10    11 1   
    21    10    12 2   
    22    11    23 1   
    23    11    24 1   
    24    11    25 1   
    25    12    13 1   
    26    13    14 2   
    27    14    15 1   
    28    15    26 1   
@<TRIPOS>SUBSTRUCTURE
     1 5SN         1 TEMP              0 ****  ****    0 ROOT
