@<TRIPOS>MOLECULE
5SN
   26    28     1     0     0
SMALL
bcc


@<TRIPOS>ATOM
      1 CAA          2.2840     2.6860     0.0200 c3         1 5SN      -0.049800
      2 CAJ          1.1380     1.7260     0.0090 cc         1 5SN      -0.051300
      3 CAM          1.3870     0.2960    -0.0110 ca         1 5SN      -0.061000
      4 CAE          2.6940    -0.2100    -0.0210 ca         1 5SN      -0.095000
      5 CAC          2.9440    -1.5650    -0.0380 ca         1 5SN      -0.137000
      6 CAD          1.8780    -2.4580    -0.0460 ca         1 5SN      -0.100000
      7 CAF          0.5770    -1.9970    -0.0370 ca         1 5SN      -0.149000
      8 CAN          0.3200    -0.6270    -0.0190 ca         1 5SN       0.051700
      9 NAO         -0.9750    -0.1090    -0.0100 na         1 5SN      -0.102200
     10 CAK         -2.2280    -0.6710    -0.0130 cc         1 5SN       0.343800
     11 CAB         -2.5760    -2.1110    -0.0220 c3         1 5SN      -0.103400
     12 NAH         -3.1160     0.2830    -0.0030 nd         1 5SN      -0.372700
     13 NAI         -2.4940     1.4790     0.0080 nd         1 5SN      -0.086000
     14 CAL         -1.2110     1.2420     0.0050 cd         1 5SN      -0.048300
     15 CAG         -0.1370     2.1660     0.0170 cd         1 5SN      -0.095000
     16 H1           2.9140     2.5720    -0.8630 hc         1 5SN       0.049367
     17 H2           1.9280     3.7130     0.0420 hc         1 5SN       0.049367
     18 H3           2.9230     2.5400     0.8920 hc         1 5SN       0.049367
     19 H4           3.5290     0.4760    -0.0150 ha         1 5SN       0.139000
     20 H5           3.9620    -1.9270    -0.0460 ha         1 5SN       0.140000
     21 H6           2.0580    -3.5240    -0.0600 ha         1 5SN       0.138000
     22 H7          -0.2210    -2.7190    -0.0450 ha         1 5SN       0.145000
     23 H8          -2.1970    -2.6350     0.8560 hc         1 5SN       0.060367
     24 H9          -3.6600    -2.1940    -0.0130 hc         1 5SN       0.060367
     25 H10         -2.2110    -2.6240    -0.9120 hc         1 5SN       0.060367
     26 H11         -0.3800     3.2200     0.0380 ha         1 5SN       0.164000
@<TRIPOS>BOND
     1     1     2 1   
     2     1    16 1   
     3     1    17 1   
     4     1    18 1   
     5     2     3 1   
     6     2    15 2   
     7     3     4 ar  
     8     3     8 ar  
     9     4     5 ar  
    10     4    19 1   
    11     5     6 ar  
    12     5    20 1   
    13     6     7 ar  
    14     6    21 1   
    15     7     8 ar  
    16     7    22 1   
    17     8     9 1   
    18     9    10 1   
    19     9    14 1   
    20    10    11 1   
    21    10    12 2   
    22    11    23 1   
    23    11    24 1   
    24    11    25 1   
    25    12    13 1   
    26    13    14 2   
    27    14    15 1   
    28    15    26 1   
@<TRIPOS>SUBSTRUCTURE
     1 5SN         1 TEMP              0 ****  ****    0 ROOT
