@<TRIPOS>MOLECULE
5SO
   86    90     1     0     0
SMALL
No Charge or Current Charge


@<TRIPOS>ATOM
      1 C4          -7.4210     6.2510    17.4020 c6         1 5SO       0.104300
      2 C5          -8.3670     5.1420    16.8770 c6         1 5SO       0.111300
      3 C6          -7.6090     3.7950    16.9200 c6         1 5SO       0.165600
      4 C3          -8.1430     7.6200    17.3020 c6         1 5SO       0.138300
      5 CAB        -14.7150     8.4160    15.6260 c3         1 5SO      -0.082100
      6 CAZ        -13.2780     7.8670    15.7710 c3         1 5SO      -0.026500
      7 CAC        -12.2360     8.8430    15.1830 c3         1 5SO      -0.082100
      8 CAX        -13.1410     6.4780    15.1690 c2         1 5SO      -0.074400
      9 CAY        -12.8250     5.3560    15.8230 c2         1 5SO      -0.168400
     10 CAL        -13.4290     6.1820    13.7120 c5         1 5SO      -0.052200
     11 CAO        -12.7470     4.8010    13.5000 c5         1 5SO      -0.073400
     12 CBL        -12.8430     4.1430    14.9220 c5         1 5SO       0.031400
     13 CAG        -11.6340     3.2210    15.2020 c3         1 5SO      -0.077100
     14 CAK        -14.1400     3.3090    14.9370 c2         1 5SO      -0.209200
     15 CAW        -15.2020     3.4230    15.7750 c2         1 5SO      -0.097400
     16 CBB        -16.4590     2.5630    15.5950 c5         1 5SO      -0.034500
     17 CAP        -16.1930     1.0370    15.5230 c3         1 5SO       0.164600
     18 OAR        -17.4550     0.3630    15.3650 os         1 5SO      -0.466000
     19 CAA        -17.3600    -1.0690    15.2970 c3         1 5SO       0.146900
     20 CAM        -17.4040     2.9740    16.7630 c5         1 5SO      -0.068400
     21 CAN        -17.0350     4.4650    16.9450 c5         1 5SO      -0.080400
     22 CBG        -15.4760     4.4310    16.9060 c5         1 5SO      -0.019500
     23 CBA        -14.8000     4.1130    18.2970 c3         1 5SO      -0.077700
     24 CAD        -14.2770     2.6540    18.4490 c3         1 5SO      -0.084100
     25 CBC        -13.7400     5.1800    18.7300 c3         1 5SO       0.178300
     26 OAH        -13.4490     5.0240    20.1370 oh         1 5SO      -0.706000
     27 CBI        -12.4310     5.1460    17.8860 c3         1 5SO       0.231500
     28 O1         -11.5540     6.2110    18.3180 os         1 5SO      -0.416000
     29 C1         -10.3330     6.3560    17.5750 c6         1 5SO       0.399300
     30 O5          -9.5710     5.1280    17.6760 os         1 5SO      -0.482000
     31 O6          -6.3480     3.9240    16.2100 os         1 5SO      -0.476000
     32 CBK         -5.4710     4.9750    16.6790 c6         1 5SO       0.394000
     33 CAE         -4.3130     5.0890    15.6630 c3         1 5SO      -0.106600
     34 CAF         -4.9090     4.6540    18.0970 c3         1 5SO      -0.106600
     35 O4          -6.1750     6.2390    16.6630 os         1 5SO      -0.481000
     36 O3          -7.2940     8.6860    17.7680 oh         1 5SO      -0.727000
     37 C2          -9.4720     7.5590    18.1100 c6         1 5SO       0.152300
     38 O2         -10.1390     8.8400    18.0370 oh         1 5SO      -0.708000
     39 H1          -7.2070     6.0610    18.4640 h1         1 5SO       0.067700
     40 H2          -8.6380     5.3540    15.8320 h1         1 5SO       0.056700
     41 H3          -8.2120     3.0150    16.4350 h1         1 5SO       0.063200
     42 H4          -7.4290     3.4840    17.9580 h1         1 5SO       0.063200
     43 H5          -8.3940     7.7890    16.2430 h1         1 5SO       0.052700
     44 H6         -15.4400     7.7340    16.0850 hc         1 5SO       0.034033
     45 H7         -14.8070     9.3900    16.1200 hc         1 5SO       0.034033
     46 H8         -14.9830     8.5410    14.5700 hc         1 5SO       0.034033
     47 H9         -13.0760     7.8000    16.8460 hc         1 5SO       0.076700
     48 H10        -11.2240     8.4340    15.2810 hc         1 5SO       0.034033
     49 H11        -12.4270     9.0310    14.1200 hc         1 5SO       0.034033
     50 H12        -12.2670     9.8040    15.7100 hc         1 5SO       0.034033
     51 H13        -13.0090     6.9390    13.0400 hc         1 5SO       0.054200
     52 H14        -14.5090     6.1410    13.5320 hc         1 5SO       0.054200
     53 H15        -13.2150     4.2110    12.7040 hc         1 5SO       0.047200
     54 H16        -11.7000     4.9480    13.2090 hc         1 5SO       0.047200
     55 H17        -11.7090     2.7470    16.1860 hc         1 5SO       0.037367
     56 H18        -11.5670     2.4200    14.4550 hc         1 5SO       0.037367
     57 H19        -10.6920     3.7810    15.1740 hc         1 5SO       0.037367
     58 H20        -14.2080     2.5410    14.1670 ha         1 5SO       0.164000
     59 H21        -16.9240     2.8350    14.6400 hc         1 5SO       0.065700
     60 H22        -15.6900     0.7080    16.4410 h1         1 5SO       0.025700
     61 H23        -15.5350     0.8140    14.6730 h1         1 5SO       0.025700
     62 H24        -18.3560    -1.5130    15.1780 h1         1 5SO       0.029033
     63 H25        -16.7420    -1.3790    14.4440 h1         1 5SO       0.029033
     64 H26        -16.9130    -1.4740    16.2150 h1         1 5SO       0.029033
     65 H27        -18.4620     2.8340    16.5110 hc         1 5SO       0.050200
     66 H28        -17.2140     2.3990    17.6750 hc         1 5SO       0.050200
     67 H29        -17.4330     5.0660    16.1180 hc         1 5SO       0.044200
     68 H30        -17.4390     4.8930    17.8690 hc         1 5SO       0.044200
     69 H31        -15.1670     5.4370    16.6200 hc         1 5SO       0.065700
     70 H32        -15.5940     4.1990    19.0490 hc         1 5SO       0.037700
     71 H33        -13.8500     2.4880    19.4450 hc         1 5SO       0.039367
     72 H34        -15.0870     1.9280    18.3270 hc         1 5SO       0.039367
     73 H35        -13.5030     2.4240    17.7100 hc         1 5SO       0.039367
     74 H36        -14.1910     6.1700    18.5740 h1         1 5SO       0.042700
     75 H37        -14.2720     5.2430    20.6280 ho         1 5SO       0.495000
     76 H38        -11.9440     4.1770    18.0530 h1         1 5SO       0.070700
     77 H39        -10.5780     6.5400    16.5180 h2         1 5SO       0.040700
     78 H40         -3.6140     5.8840    15.9480 hc         1 5SO       0.053867
     79 H41         -3.7470     4.1520    15.6000 hc         1 5SO       0.053867
     80 H42         -4.6920     5.3200    14.6610 hc         1 5SO       0.053867
     81 H43         -5.6860     4.5270    18.8560 hc         1 5SO       0.053867
     82 H44         -4.3200     3.7300    18.0800 hc         1 5SO       0.053867
     83 H45         -4.2460     5.4570    18.4410 hc         1 5SO       0.053867
     84 H46         -6.3960     8.4810    17.4100 ho         1 5SO       0.521000
     85 H47         -9.2210     7.3360    19.1580 h1         1 5SO       0.073700
     86 H48         -9.4030     9.4980    18.0690 ho         1 5SO       0.519000
@<TRIPOS>BOND
     1     1     2 1   
     2     1     4 1   
     3     1    35 1   
     4     1    39 1   
     5     2     3 1   
     6     2    30 1   
     7     2    40 1   
     8     3    31 1   
     9     3    41 1   
    10     3    42 1   
    11     4    36 1   
    12     4    37 1   
    13     4    43 1   
    14     5     6 1   
    15     5    44 1   
    16     5    45 1   
    17     5    46 1   
    18     6     7 1   
    19     6     8 1   
    20     6    47 1   
    21     7    48 1   
    22     7    49 1   
    23     7    50 1   
    24     8     9 2   
    25     8    10 1   
    26     9    12 1   
    27     9    27 1   
    28    10    11 1   
    29    10    51 1   
    30    10    52 1   
    31    11    12 1   
    32    11    53 1   
    33    11    54 1   
    34    12    13 1   
    35    12    14 1   
    36    13    55 1   
    37    13    56 1   
    38    13    57 1   
    39    14    15 2   
    40    14    58 1   
    41    15    16 1   
    42    15    22 1   
    43    16    17 1   
    44    16    20 1   
    45    16    59 1   
    46    17    18 1   
    47    17    60 1   
    48    17    61 1   
    49    18    19 1   
    50    19    62 1   
    51    19    63 1   
    52    19    64 1   
    53    20    21 1   
    54    20    65 1   
    55    20    66 1   
    56    21    22 1   
    57    21    67 1   
    58    21    68 1   
    59    22    23 1   
    60    22    69 1   
    61    23    24 1   
    62    23    25 1   
    63    23    70 1   
    64    24    71 1   
    65    24    72 1   
    66    24    73 1   
    67    25    26 1   
    68    25    27 1   
    69    25    74 1   
    70    26    75 1   
    71    27    28 1   
    72    27    76 1   
    73    28    29 1   
    74    29    30 1   
    75    29    37 1   
    76    29    77 1   
    77    31    32 1   
    78    32    33 1   
    79    32    34 1   
    80    32    35 1   
    81    33    78 1   
    82    33    79 1   
    83    33    80 1   
    84    34    81 1   
    85    34    82 1   
    86    34    83 1   
    87    36    84 1   
    88    37    38 1   
    89    37    85 1   
    90    38    86 1   
@<TRIPOS>SUBSTRUCTURE
     1 5SO         1 TEMP              0 ****  ****    0 ROOT
