@<TRIPOS>MOLECULE
5SO
   86    90     1     0     0
SMALL
abcg2


@<TRIPOS>ATOM
      1 C4          -7.4820     5.9520    17.4030 c6         1 5SO       0.104300
      2 C5          -8.4700     4.9440    16.8310 c6         1 5SO       0.111300
      3 C6          -7.9220     3.5460    17.0330 c6         1 5SO       0.165600
      4 C3          -8.0010     7.3500    17.1430 c6         1 5SO       0.138300
      5 CAB        -15.0590     8.4850    15.9440 c3         1 5SO      -0.082100
      6 CAZ        -13.5700     8.1080    15.9650 c3         1 5SO      -0.026500
      7 CAC        -12.7360     9.1950    15.2700 c3         1 5SO      -0.082100
      8 CAX        -13.3460     6.7580    15.3380 c2         1 5SO      -0.074400
      9 CAY        -12.9110     5.6300    15.9170 c2         1 5SO      -0.168400
     10 CAL        -13.6810     6.5180    13.8810 c5         1 5SO      -0.052200
     11 CAO        -12.9390     5.2180    13.5670 c5         1 5SO      -0.073400
     12 CBL        -12.8660     4.4650    14.9260 c5         1 5SO       0.031400
     13 CAG        -11.5770     3.6310    15.0040 c3         1 5SO      -0.077100
     14 CAK        -14.0430     3.5150    15.0100 c2         1 5SO      -0.209200
     15 CAW        -15.1310     3.5130    15.7740 c2         1 5SO      -0.097400
     16 CBB        -16.2260     2.4500    15.6250 c5         1 5SO      -0.034500
     17 CAP        -15.6980     1.0270    15.5880 c3         1 5SO       0.164600
     18 OAR        -16.7910     0.1320    15.4120 os         1 5SO      -0.466000
     19 CAA        -16.3780    -1.2230    15.3960 c3         1 5SO       0.146900
     20 CAM        -17.1970     2.7130    16.7860 c5         1 5SO      -0.068400
     21 CAN        -17.0370     4.2080    17.0620 c5         1 5SO      -0.080400
     22 CBG        -15.5350     4.4990    16.8630 c5         1 5SO      -0.019500
     23 CBA        -14.7180     4.3890    18.1880 c3         1 5SO      -0.077700
     24 CAD        -14.1190     3.0090    18.4700 c3         1 5SO      -0.084100
     25 CBC        -13.6810     5.5200    18.3410 c3         1 5SO       0.178300
     26 OAH        -13.1270     5.4960    19.6630 oh         1 5SO      -0.706000
     27 CBI        -12.5090     5.4440    17.3600 c3         1 5SO       0.231500
     28 O1         -11.5430     6.4350    17.7960 os         1 5SO      -0.416000
     29 C1         -10.3140     6.3610    17.1710 c6         1 5SO       0.399300
     30 O5          -9.7180     5.0960    17.4830 os         1 5SO      -0.482000
     31 O6          -6.6190     3.4870    16.4480 os         1 5SO      -0.476000
     32 CBK         -5.6790     4.4530    16.9270 c6         1 5SO       0.394000
     33 CAE         -4.4950     4.3830    15.9850 c3         1 5SO      -0.106600
     34 CAF         -5.2720     4.1680    18.3710 c3         1 5SO      -0.106600
     35 O4          -6.2140     5.7770    16.7850 os         1 5SO      -0.481000
     36 O3          -7.2210     8.3620    17.7770 oh         1 5SO      -0.727000
     37 C2          -9.4190     7.4830    17.6980 c6         1 5SO       0.152300
     38 O2          -9.9800     8.7340    17.3300 oh         1 5SO      -0.708000
     39 H1          -7.4070     5.8020    18.4860 h1         1 5SO       0.067700
     40 H2          -8.5810     5.1270    15.7540 h1         1 5SO       0.056700
     41 H3          -8.5250     2.8020    16.5150 h1         1 5SO       0.063200
     42 H4          -7.8980     3.2980    18.0990 h1         1 5SO       0.063200
     43 H5          -8.0270     7.5240    16.0610 h1         1 5SO       0.052700
     44 H6         -15.6660     7.7450    16.4680 hc         1 5SO       0.034033
     45 H7         -15.2080     9.4530    16.4290 hc         1 5SO       0.034033
     46 H8         -15.4300     8.5620    14.9200 hc         1 5SO       0.034033
     47 H9         -13.2450     8.0610    17.0040 hc         1 5SO       0.076700
     48 H10        -11.6760     8.9430    15.2840 hc         1 5SO       0.034033
     49 H11        -13.0490     9.3300    14.2320 hc         1 5SO       0.034033
     50 H12        -12.8640    10.1500    15.7840 hc         1 5SO       0.034033
     51 H13        -13.3810     7.3410    13.2300 hc         1 5SO       0.054200
     52 H14        -14.7650     6.4030    13.7650 hc         1 5SO       0.054200
     53 H15        -13.4100     4.6190    12.7870 hc         1 5SO       0.047200
     54 H16        -11.9220     5.4520    13.2420 hc         1 5SO       0.047200
     55 H17        -11.5030     3.0790    15.9420 hc         1 5SO       0.037367
     56 H18        -11.5590     2.9050    14.1880 hc         1 5SO       0.037367
     57 H19        -10.6980     4.2700    14.9090 hc         1 5SO       0.037367
     58 H20        -13.9580     2.7140    14.2770 ha         1 5SO       0.164000
     59 H21        -16.7540     2.6310    14.6810 hc         1 5SO       0.065700
     60 H22        -15.1780     0.7940    16.5260 h1         1 5SO       0.025700
     61 H23        -14.9840     0.8920    14.7670 h1         1 5SO       0.025700
     62 H24        -17.2680    -1.8360    15.2540 h1         1 5SO       0.029033
     63 H25        -15.6750    -1.4130    14.5750 h1         1 5SO       0.029033
     64 H26        -15.8950    -1.5010    16.3400 h1         1 5SO       0.029033
     65 H27        -18.2220     2.4320    16.5420 hc         1 5SO       0.050200
     66 H28        -16.8990     2.1280    17.6590 hc         1 5SO       0.050200
     67 H29        -17.6090     4.7760    16.3230 hc         1 5SO       0.044200
     68 H30        -17.3920     4.5050    18.0500 hc         1 5SO       0.044200
     69 H31        -15.4190     5.5170    16.5030 hc         1 5SO       0.065700
     70 H32        -15.4370     4.5940    18.9890 hc         1 5SO       0.037700
     71 H33        -13.5920     3.0130    19.4240 hc         1 5SO       0.039367
     72 H34        -14.9000     2.2520    18.5220 hc         1 5SO       0.039367
     73 H35        -13.4190     2.7040    17.6930 hc         1 5SO       0.039367
     74 H36        -14.1980     6.4720    18.1890 h1         1 5SO       0.042700
     75 H37        -13.8630     5.4260    20.2850 ho         1 5SO       0.495000
     76 H38        -12.0370     4.4700    17.4790 h1         1 5SO       0.070700
     77 H39        -10.4160     6.4360    16.0790 h2         1 5SO       0.040700
     78 H40         -3.7430     5.1140    16.2800 hc         1 5SO       0.053867
     79 H41         -4.0530     3.3880    16.0180 hc         1 5SO       0.053867
     80 H42         -4.8240     4.5970    14.9680 hc         1 5SO       0.053867
     81 H43         -6.1160     4.1740    19.0570 hc         1 5SO       0.053867
     82 H44         -4.7980     3.1870    18.4210 hc         1 5SO       0.053867
     83 H45         -4.5560     4.9210    18.7000 hc         1 5SO       0.053867
     84 H46         -6.3860     8.4480    17.2990 ho         1 5SO       0.521000
     85 H47         -9.3790     7.3880    18.7900 h1         1 5SO       0.073700
     86 H48         -9.3160     9.4090    17.5260 ho         1 5SO       0.519000
@<TRIPOS>BOND
     1     1     2 1   
     2     1     4 1   
     3     1    35 1   
     4     1    39 1   
     5     2     3 1   
     6     2    30 1   
     7     2    40 1   
     8     3    31 1   
     9     3    41 1   
    10     3    42 1   
    11     4    36 1   
    12     4    37 1   
    13     4    43 1   
    14     5     6 1   
    15     5    44 1   
    16     5    45 1   
    17     5    46 1   
    18     6     7 1   
    19     6     8 1   
    20     6    47 1   
    21     7    48 1   
    22     7    49 1   
    23     7    50 1   
    24     8     9 2   
    25     8    10 1   
    26     9    12 1   
    27     9    27 1   
    28    10    11 1   
    29    10    51 1   
    30    10    52 1   
    31    11    12 1   
    32    11    53 1   
    33    11    54 1   
    34    12    13 1   
    35    12    14 1   
    36    13    55 1   
    37    13    56 1   
    38    13    57 1   
    39    14    15 2   
    40    14    58 1   
    41    15    16 1   
    42    15    22 1   
    43    16    17 1   
    44    16    20 1   
    45    16    59 1   
    46    17    18 1   
    47    17    60 1   
    48    17    61 1   
    49    18    19 1   
    50    19    62 1   
    51    19    63 1   
    52    19    64 1   
    53    20    21 1   
    54    20    65 1   
    55    20    66 1   
    56    21    22 1   
    57    21    67 1   
    58    21    68 1   
    59    22    23 1   
    60    22    69 1   
    61    23    24 1   
    62    23    25 1   
    63    23    70 1   
    64    24    71 1   
    65    24    72 1   
    66    24    73 1   
    67    25    26 1   
    68    25    27 1   
    69    25    74 1   
    70    26    75 1   
    71    27    28 1   
    72    27    76 1   
    73    28    29 1   
    74    29    30 1   
    75    29    37 1   
    76    29    77 1   
    77    31    32 1   
    78    32    33 1   
    79    32    34 1   
    80    32    35 1   
    81    33    78 1   
    82    33    79 1   
    83    33    80 1   
    84    34    81 1   
    85    34    82 1   
    86    34    83 1   
    87    36    84 1   
    88    37    38 1   
    89    37    85 1   
    90    38    86 1   
@<TRIPOS>SUBSTRUCTURE
     1 5SO         1 TEMP              0 ****  ****    0 ROOT
