@<TRIPOS>MOLECULE
5SQ
   42    44     1     0     0
SMALL
No Charge or Current Charge


@<TRIPOS>ATOM
      1 C1           0.5200     0.1740     0.5270 cc         1 5SQ       0.457900
      2 C2          -0.3210     2.2680     0.3990 c          1 5SQ       0.538200
      3 O            2.5000     2.5780    -1.5570 o          1 5SQ      -0.716000
      4 C            2.6300     3.0250    -0.4260 c          1 5SQ       0.719000
      5 CA3          2.1640     2.1540     0.7650 c3         1 5SQ      -0.057000
      6 N3           0.8220     1.5280     0.5900 n          1 5SQ      -0.297300
      7 O2          -0.4450     3.4870     0.3870 o          1 5SQ      -0.499000
      8 CA1          1.5680    -0.9420     0.7070 c3         1 5SQ       0.141200
      9 N            0.9990    -2.2340     1.2170 n8         1 5SQ      -0.989200
     10 CB1          2.3590    -1.1980    -0.5970 c3         1 5SQ      -0.097700
     11 CG1          3.6350    -1.9640    -0.3900 cc         1 5SQ       0.283300
     12 C2H          3.8900    -3.2710    -0.7030 cd         1 5SQ      -0.237000
     13 N2H          5.2110    -3.4750    -0.3360 na         1 5SQ      -0.312500
     14 N1H          4.7410    -1.3590     0.1370 nc         1 5SQ      -0.659000
     15 C1H          5.6910    -2.2820     0.1730 cd         1 5SQ       0.376400
     16 N2          -0.7800    -0.0840     0.3050 nd         1 5SQ      -0.692300
     17 CA2         -1.3220     1.1970     0.2210 cd         1 5SQ       0.035400
     18 CB2         -2.6670     1.4200    -0.0080 ce         1 5SQ      -0.108200
     19 CG2         -3.8200     0.4740    -0.1030 ca         1 5SQ      -0.070800
     20 CD2         -3.8440    -0.7500     0.5990 ca         1 5SQ      -0.054500
     21 CE2         -4.9540    -1.6090     0.4970 ca         1 5SQ      -0.188500
     22 CD1         -4.9330     0.8300    -0.8920 ca         1 5SQ      -0.054500
     23 CE1         -6.0410    -0.0300    -0.9930 ca         1 5SQ      -0.188500
     24 CZ1         -6.0500    -1.2480    -0.3010 ca         1 5SQ       0.127100
     25 OH          -7.1270    -2.0750    -0.4020 oh         1 5SQ      -0.542100
     26 OXY          3.1030     4.1260    -0.1850 o          1 5SQ      -0.716000
     27 H1           2.9280     1.3860     0.9230 h1         1 5SQ       0.047200
     28 H2           2.1370     2.7860     1.6630 h1         1 5SQ       0.047200
     29 H3           2.2840    -0.5870     1.4620 h1         1 5SQ       0.091700
     30 H4           0.5610    -2.0630     2.1290 hn         1 5SQ       0.396500
     31 H5           0.1920    -2.4700     0.6270 hn         1 5SQ       0.396500
     32 H7           1.7210    -1.7210    -1.3180 hc         1 5SQ       0.083200
     33 H8           2.6070    -0.2360    -1.0610 hc         1 5SQ       0.083200
     34 H9           3.2530    -4.0330    -1.1380 h4         1 5SQ       0.149000
     35 H10          5.7470    -4.3320    -0.4180 hn         1 5SQ       0.337000
     36 H12          6.7080    -2.1660     0.5320 h5         1 5SQ       0.043100
     37 H14         -2.9380     2.4710    -0.1160 ha         1 5SQ       0.186000
     38 H16         -3.0120    -1.0360     1.2360 ha         1 5SQ       0.130000
     39 H17         -4.9560    -2.5480     1.0450 ha         1 5SQ       0.111000
     40 H18         -4.9360     1.7740    -1.4340 ha         1 5SQ       0.130000
     41 H19         -6.8910     0.2520    -1.6090 ha         1 5SQ       0.111000
     42 H20         -6.9580    -2.8710     0.1450 ho         1 5SQ       0.458000
@<TRIPOS>BOND
     1     1     6 1   
     2     1     8 1   
     3     1    16 2   
     4     2     6 1   
     5     2     7 2   
     6     2    17 1   
     7     3     4 1   
     8     4     5 1   
     9     4    26 1   
    10     5     6 1   
    11     5    27 1   
    12     5    28 1   
    13     8     9 1   
    14     8    10 1   
    15     8    29 1   
    16     9    30 1   
    17     9    31 1   
    18    10    11 1   
    19    10    32 1   
    20    10    33 1   
    21    11    12 2   
    22    11    14 1   
    23    12    13 1   
    24    12    34 1   
    25    13    15 1   
    26    13    35 1   
    27    14    15 2   
    28    15    36 1   
    29    16    17 1   
    30    17    18 2   
    31    18    19 1   
    32    18    37 1   
    33    19    20 ar  
    34    19    22 ar  
    35    20    21 ar  
    36    20    38 1   
    37    21    24 ar  
    38    21    39 1   
    39    22    23 ar  
    40    22    40 1   
    41    23    24 ar  
    42    23    41 1   
    43    24    25 1   
    44    25    42 1   
@<TRIPOS>SUBSTRUCTURE
     1 5SQ         1 TEMP              0 ****  ****    0 ROOT
