@<TRIPOS>MOLECULE
5SQ
   42    44     1     0     0
SMALL
abcg2


@<TRIPOS>ATOM
      1 C1           0.5540     0.2640     0.6490 cc         1 5SQ       0.457900
      2 C2          -0.3520     2.2710     0.3210 c          1 5SQ       0.538200
      3 O            2.0240     2.2600    -1.7300 o          1 5SQ      -0.716000
      4 C            2.6110     2.7200    -0.7380 c          1 5SQ       0.719000
      5 CA3          2.0920     2.2910     0.6550 c3         1 5SQ      -0.057000
      6 N3           0.8210     1.6140     0.6090 n          1 5SQ      -0.297300
      7 O2          -0.4850     3.4730     0.1960 o          1 5SQ      -0.499000
      8 CA1          1.6130    -0.7780     0.8730 c3         1 5SQ       0.141200
      9 N            1.1040    -1.9960     1.4610 n8         1 5SQ      -0.989200
     10 CB1          2.2980    -1.0890    -0.4710 c3         1 5SQ      -0.097700
     11 CG1          3.5210    -1.9160    -0.2920 cc         1 5SQ       0.283300
     12 C2H          3.7470    -3.2020    -0.6940 cd         1 5SQ      -0.237000
     13 N2H          5.0160    -3.4970    -0.2800 na         1 5SQ      -0.312500
     14 N1H          4.6260    -1.4330     0.3560 nc         1 5SQ      -0.659000
     15 C1H          5.5000    -2.4090     0.3450 cd         1 5SQ       0.376400
     16 N2          -0.6880    -0.0300     0.4550 nd         1 5SQ      -0.692300
     17 CA2         -1.3430     1.1740     0.2390 cd         1 5SQ       0.035400
     18 CB2         -2.6510     1.3850    -0.0080 ce         1 5SQ      -0.108200
     19 CG2         -3.7330     0.4310    -0.1130 ca         1 5SQ      -0.070800
     20 CD2         -3.5810    -0.9540     0.0470 ca         1 5SQ      -0.054500
     21 CE2         -4.6610    -1.8070    -0.0670 ca         1 5SQ      -0.188500
     22 CD1         -5.0190     0.9150    -0.3920 ca         1 5SQ      -0.054500
     23 CE1         -6.1060     0.0720    -0.5080 ca         1 5SQ      -0.188500
     24 CZ1         -5.9330    -1.3030    -0.3450 ca         1 5SQ       0.127100
     25 OH          -7.0130    -2.0900    -0.4660 oh         1 5SQ      -0.542100
     26 OXY          3.5960     3.4790    -0.7090 o          1 5SQ      -0.716000
     27 H1           2.8280     1.6400     1.1280 h1         1 5SQ       0.047200
     28 H2           2.0020     3.1650     1.3020 h1         1 5SQ       0.047200
     29 H3           2.3700    -0.3700     1.5490 h1         1 5SQ       0.091700
     30 H4           0.7350    -1.8020     2.3840 hn         1 5SQ       0.396500
     31 H5           0.3180    -2.3280     0.9150 hn         1 5SQ       0.396500
     32 H7           1.5820    -1.6130    -1.1110 hc         1 5SQ       0.083200
     33 H8           2.5430    -0.1560    -0.9830 hc         1 5SQ       0.083200
     34 H9           3.1320    -3.9100    -1.2220 h4         1 5SQ       0.149000
     35 H10          5.5000    -4.3690    -0.4180 hn         1 5SQ       0.337000
     36 H12          6.4920    -2.3780     0.7700 h5         1 5SQ       0.043100
     37 H14         -2.9320     2.4240    -0.1530 ha         1 5SQ       0.186000
     38 H16         -2.6050    -1.3630     0.2660 ha         1 5SQ       0.130000
     39 H17         -4.5160    -2.8740     0.0600 ha         1 5SQ       0.111000
     40 H18         -5.1680     1.9800    -0.5200 ha         1 5SQ       0.130000
     41 H19         -7.0890     0.4700    -0.7250 ha         1 5SQ       0.111000
     42 H20         -6.7750    -3.0150    -0.3340 ho         1 5SQ       0.458000
@<TRIPOS>BOND
     1     1     6 1   
     2     1     8 1   
     3     1    16 2   
     4     2     6 1   
     5     2     7 2   
     6     2    17 1   
     7     3     4 1   
     8     4     5 1   
     9     4    26 1   
    10     5     6 1   
    11     5    27 1   
    12     5    28 1   
    13     8     9 1   
    14     8    10 1   
    15     8    29 1   
    16     9    30 1   
    17     9    31 1   
    18    10    11 1   
    19    10    32 1   
    20    10    33 1   
    21    11    12 2   
    22    11    14 1   
    23    12    13 1   
    24    12    34 1   
    25    13    15 1   
    26    13    35 1   
    27    14    15 2   
    28    15    36 1   
    29    16    17 1   
    30    17    18 2   
    31    18    19 1   
    32    18    37 1   
    33    19    20 ar  
    34    19    22 ar  
    35    20    21 ar  
    36    20    38 1   
    37    21    24 ar  
    38    21    39 1   
    39    22    23 ar  
    40    22    40 1   
    41    23    24 ar  
    42    23    41 1   
    43    24    25 1   
    44    25    42 1   
@<TRIPOS>SUBSTRUCTURE
     1 5SQ         1 TEMP              0 ****  ****    0 ROOT
