@<TRIPOS>MOLECULE
5SS
   66    70     1     0     0
SMALL
bcc


@<TRIPOS>ATOM
      1 C13          4.3500     0.0370     0.0550 cp         1 5SS      -0.093000
      2 C18          8.1040     0.5010     0.3420 cc         1 5SS       0.573200
      3 C17          0.6830     0.4150     0.8260 ca         1 5SS       0.398600
      4 C16          6.7440     0.0340    -1.3550 ca         1 5SS      -0.000200
      5 C15         -2.1580     2.8420    -0.0650 ca         1 5SS      -0.077300
      6 C19         -2.4900    -0.5570    -0.4810 c          1 5SS       0.673100
      7 C20         -4.8830    -0.7030     0.2300 c6         1 5SS      -0.065400
      8 C21         -3.7730    -2.6830    -0.8570 c6         1 5SS      -0.065400
      9 C22         -6.0020    -1.6120     0.7270 c6         1 5SS      -0.069400
     10 C23         -4.8950    -3.5800    -0.3510 c6         1 5SS      -0.069400
     11 C24         -3.5690    -1.4770     0.0590 c6         1 5SS      -0.139700
     12 C11          1.7050    -0.3670     2.7000 ca         1 5SS       0.408200
     13 C12          6.7290     0.2900     0.0260 ca         1 5SS      -0.300900
     14 C1          -4.4300     3.7570    -1.4190 ca         1 5SS      -0.125000
     15 C2          -3.1780     3.8430    -2.0160 ca         1 5SS      -0.125500
     16 C3          -4.5450     3.2190    -0.1450 ca         1 5SS      -0.125500
     17 C4           4.3920    -0.2170    -1.3400 ca         1 5SS      -0.064000
     18 C5          -2.0540     3.3870    -1.3430 ca         1 5SS      -0.118500
     19 C6          -3.4150     2.7670     0.5250 ca         1 5SS      -0.118500
     20 C7           5.5610    -0.2280    -2.0590 ca         1 5SS      -0.157000
     21 C8           2.9470    -0.3820     2.0900 ca         1 5SS      -0.246300
     22 C9           5.5270     0.2900     0.7370 ca         1 5SS      -0.026000
     23 C10          1.8830     0.4420     0.1340 ca         1 5SS      -0.230300
     24 C14          3.0590     0.0340     0.7640 cp         1 5SS       0.022000
     25 C25         -6.2080    -2.8190    -0.1830 c6         1 5SS      -0.061700
     26 C26         -0.9420     2.3060     0.6330 c3         1 5SS      -0.044100
     27 C28         -0.5940     0.8800     0.1680 c3         1 5SS       0.067400
     28 N29          0.5910     0.0210     2.0920 nb         1 5SS      -0.680000
     29 N30          8.8580     0.3850    -0.7120 nd         1 5SS      -0.536100
     30 N31          8.0310     0.1020    -1.7400 na         1 5SS      -0.013100
     31 N33         -1.6620    -0.0470     0.4500 ns         1 5SS      -0.564900
     32 O34         -2.3940    -0.2990    -1.6730 o          1 5SS      -0.608100
     33 O35          8.6620     0.7800     1.5230 oh         1 5SS      -0.545600
     34 H1          -5.1660    -0.2570    -0.7290 hc         1 5SS       0.051700
     35 H2          -4.7400     0.1250     0.9280 hc         1 5SS       0.051700
     36 H3          -2.8450    -3.2550    -0.9350 hc         1 5SS       0.051700
     37 H4          -4.0130    -2.3330    -1.8640 hc         1 5SS       0.051700
     38 H5          -5.7600    -1.9650     1.7370 hc         1 5SS       0.042950
     39 H6          -6.9300    -1.0440     0.8110 hc         1 5SS       0.042950
     40 H7          -5.0330    -4.4170    -1.0420 hc         1 5SS       0.042950
     41 H8          -4.6070    -4.0180     0.6130 hc         1 5SS       0.042950
     42 H9          -3.2680    -1.8430     1.0490 hc         1 5SS       0.050700
     43 H10          1.6050    -0.6940     3.7290 h4         1 5SS       0.020100
     44 H13         -5.3090     4.1110    -1.9420 ha         1 5SS       0.129000
     45 H14         -3.0770     4.2680    -3.0060 ha         1 5SS       0.128500
     46 H15         -5.5150     3.1480     0.3300 ha         1 5SS       0.128500
     47 H16          3.4690    -0.4360    -1.8620 ha         1 5SS       0.139000
     48 H17         -1.0820     3.4590    -1.8170 ha         1 5SS       0.125500
     49 H18         -3.5140     2.3530     1.5220 ha         1 5SS       0.125500
     50 H19          5.5640    -0.4350    -3.1200 ha         1 5SS       0.145000
     51 H20          3.8060    -0.7400     2.6430 ha         1 5SS       0.141000
     52 H21          5.5130     0.5040     1.7980 ha         1 5SS       0.133000
     53 H22          1.8930     0.7920    -0.8910 ha         1 5SS       0.146000
     54 H23         -6.5060    -2.4500    -1.1750 hc         1 5SS       0.046700
     55 H24         -0.0800     2.9500     0.4370 hc         1 5SS       0.057200
     56 H25         -1.0930     2.2980     1.7160 hc         1 5SS       0.057200
     57 H26         -0.4480     0.8920    -0.9130 h1         1 5SS       0.088700
     58 H27         -8.8920    -2.7970    -0.5010 hn         1 5SS       0.335800
     59 H28         -9.2860    -3.7370     0.7470 hn         1 5SS       0.335800
     60 H30         -1.7960    -0.3050     1.4150 hn         1 5SS       0.326500
     61 H31          8.4130    -0.0320    -2.6600 hn         1 5SS       0.333700
     62 H29          7.9880     0.8620     2.2060 ho         1 5SS       0.436000
     63 C27         -7.3040    -3.7520     0.3190 c3         1 5SS       0.150800
     64 N32         -8.5900    -3.0780     0.4240 n8         1 5SS      -0.884800
     65 H11         -7.3300    -4.6350    -0.3370 h1         1 5SS       0.026700
     66 H12         -7.0260    -4.1180     1.3130 h1         1 5SS       0.026700
@<TRIPOS>BOND
     1     1    17 ar  
     2     1    22 ar  
     3     1    24 1   
     4     2    13 1   
     5     2    29 2   
     6     2    33 1   
     7     3    23 ar  
     8     3    27 1   
     9     3    28 ar  
    10     4    13 ar  
    11     4    20 ar  
    12     4    30 1   
    13     5    18 ar  
    14     5    19 ar  
    15     5    26 1   
    16     6    11 1   
    17     6    31 1   
    18     6    32 2   
    19     7     9 1   
    20     7    11 1   
    21     7    34 1   
    22     7    35 1   
    23     8    10 1   
    24     8    11 1   
    25     8    36 1   
    26     8    37 1   
    27     9    25 1   
    28     9    38 1   
    29     9    39 1   
    30    10    25 1   
    31    10    40 1   
    32    10    41 1   
    33    11    42 1   
    34    12    21 ar  
    35    12    28 ar  
    36    12    43 1   
    37    13    22 ar  
    38    14    15 ar  
    39    14    16 ar  
    40    14    44 1   
    41    15    18 ar  
    42    15    45 1   
    43    16    19 ar  
    44    16    46 1   
    45    17    20 ar  
    46    17    47 1   
    47    18    48 1   
    48    19    49 1   
    49    20    50 1   
    50    21    24 ar  
    51    21    51 1   
    52    22    52 1   
    53    23    24 ar  
    54    23    53 1   
    55    25    54 1   
    56    25    63 1   
    57    26    27 1   
    58    26    55 1   
    59    26    56 1   
    60    27    31 1   
    61    27    57 1   
    62    29    30 1   
    63    30    61 1   
    64    31    60 1   
    65    33    62 1   
    66    58    64 1   
    67    59    64 1   
    68    63    64 1   
    69    63    65 1   
    70    63    66 1   
@<TRIPOS>SUBSTRUCTURE
     1 5SS         1 TEMP              0 ****  ****    0 ROOT
