@<TRIPOS>MOLECULE
5SS
   66    70     1     0     0
SMALL
No Charge or Current Charge


@<TRIPOS>ATOM
      1 C13          4.4960     0.0210    -0.0030 cp         1 5SS      -0.093000
      2 C18          8.2790     0.5190     0.3720 cc         1 5SS       0.573200
      3 C17          0.7630     0.3540     0.7950 ca         1 5SS       0.333300
      4 C16          6.9590     0.1220    -1.3450 ca         1 5SS      -0.000200
      5 C15         -2.1510     2.8460    -0.0350 ca         1 5SS      -0.077300
      6 C19         -2.6040    -0.4330    -0.5570 c          1 5SS       0.606100
      7 C20         -5.1400    -0.5960    -0.1080 c6         1 5SS      -0.065400
      8 C21         -3.7750    -2.7360    -0.6330 c6         1 5SS      -0.065400
      9 C22         -6.2610    -1.4800     0.4940 c6         1 5SS      -0.069400
     10 C23         -4.9140    -3.5890    -0.0210 c6         1 5SS      -0.069400
     11 C24         -3.7630    -1.3060    -0.0330 c6         1 5SS      -0.139700
     12 C11          1.8040    -0.5750     2.6490 ca         1 5SS       0.342900
     13 C12          6.9090     0.3030     0.0010 ca         1 5SS      -0.300900
     14 C1          -4.5170     3.8340    -1.2090 ca         1 5SS      -0.107000
     15 C2          -3.3170     3.8330    -1.9390 ca         1 5SS      -0.107500
     16 C3          -4.5370     3.3440     0.1080 ca         1 5SS      -0.107500
     17 C4           4.5750    -0.1670    -1.4190 ca         1 5SS      -0.046000
     18 C5          -2.1370     3.3400    -1.3540 ca         1 5SS      -0.100500
     19 C6          -3.3570     2.8530     0.6930 ca         1 5SS      -0.100500
     20 C7           5.8100    -0.1170    -2.1020 ca         1 5SS      -0.139000
     21 C8           3.0570    -0.5410     2.0200 ca         1 5SS      -0.163000
     22 C9           5.7020     0.2610     0.7180 ca         1 5SS      -0.008000
     23 C10          1.9840     0.4200     0.0990 ca         1 5SS      -0.147000
     24 C14          3.1780    -0.0340     0.7060 cp         1 5SS       0.022000
     25 C25         -6.2990    -2.8940    -0.1620 c6         1 5SS      -0.061700
     26 C26         -0.8730     2.2980     0.5930 c3         1 5SS      -0.044100
     27 C28         -0.5340     0.8550     0.1410 c3         1 5SS       0.067400
     28 N29          0.6720    -0.1370     2.0560 nb         1 5SS      -0.680000
     29 N30          9.1380     0.4790    -0.6440 nd         1 5SS      -0.536100
     30 N31          8.2850     0.2260    -1.7320 na         1 5SS      -0.063400
     31 N33         -1.6690    -0.0550     0.3820 ns         1 5SS      -0.497900
     32 O34         -2.5200    -0.1070    -1.7330 o          1 5SS      -0.608100
     33 O35          8.6240     0.7370     1.6420 oh         1 5SS      -0.584600
     34 H1          -5.3780    -0.3610    -1.1540 hc         1 5SS       0.051700
     35 H2          -5.0980     0.3640     0.4250 hc         1 5SS       0.051700
     36 H3          -2.8070    -3.2260    -0.4590 hc         1 5SS       0.051700
     37 H4          -3.9040    -2.6780    -1.7230 hc         1 5SS       0.051700
     38 H5          -6.1090    -1.5780     1.5780 hc         1 5SS       0.042950
     39 H6          -7.2260    -0.9720     0.3620 hc         1 5SS       0.042950
     40 H7          -4.9350    -4.5710    -0.5120 hc         1 5SS       0.042950
     41 H8          -4.6990    -3.7790     1.0410 hc         1 5SS       0.042950
     42 H9          -3.5620    -1.4380     1.0400 hc         1 5SS       0.050700
     43 H10          1.7010    -0.9680     3.6600 h4         1 5SS       0.020100
     44 H13         -5.4300     4.2130    -1.6620 ha         1 5SS       0.111000
     45 H14         -3.3010     4.2110    -2.9590 ha         1 5SS       0.110500
     46 H15         -5.4650     3.3430     0.6740 ha         1 5SS       0.110500
     47 H16          3.6720    -0.3660    -1.9910 ha         1 5SS       0.121000
     48 H17         -1.2130     3.3380    -1.9280 ha         1 5SS       0.107500
     49 H18         -3.3830     2.4700     1.7110 ha         1 5SS       0.107500
     50 H19          5.8620    -0.2630    -3.1790 ha         1 5SS       0.127000
     51 H20          3.9230    -0.9230     2.5520 ha         1 5SS       0.123000
     52 H21          5.6830     0.4220     1.7930 ha         1 5SS       0.115000
     53 H22          2.0040     0.8380    -0.9030 ha         1 5SS       0.128000
     54 H23         -6.5180    -2.7790    -1.2330 hc         1 5SS       0.046700
     55 H24         -0.0280     2.9530     0.3440 hc         1 5SS       0.057200
     56 H25         -0.9550     2.3190     1.6860 hc         1 5SS       0.057200
     57 H26         -0.3560     0.8880    -0.9420 h1         1 5SS       0.088700
     58 H27         -8.9750    -3.2450    -0.8040 hn         1 5SS       0.391000
     59 H28         -9.4710    -3.9670     0.5510 hn         1 5SS       0.391000
     60 H30         -1.7950    -0.4090     1.3230 hn         1 5SS       0.326500
     61 H31          8.6400     0.1350    -2.6830 hn         1 5SS       0.384000
     62 H29          7.7800     0.7040     2.1290 ho         1 5SS       0.475000
     63 C27         -7.4270    -3.7940     0.4280 c3         1 5SS       0.150800
     64 N32         -8.7920    -3.2770     0.2050 n8         1 5SS      -0.995200
     65 H11         -7.3620    -4.7890    -0.0320 h1         1 5SS       0.026700
     66 H12         -7.2680    -3.9080     1.5100 h1         1 5SS       0.026700
@<TRIPOS>BOND
     1     1    17 ar  
     2     1    22 ar  
     3     1    24 1   
     4     2    13 1   
     5     2    29 2   
     6     2    33 1   
     7     3    23 ar  
     8     3    27 1   
     9     3    28 ar  
    10     4    13 ar  
    11     4    20 ar  
    12     4    30 1   
    13     5    18 ar  
    14     5    19 ar  
    15     5    26 1   
    16     6    11 1   
    17     6    31 1   
    18     6    32 2   
    19     7     9 1   
    20     7    11 1   
    21     7    34 1   
    22     7    35 1   
    23     8    10 1   
    24     8    11 1   
    25     8    36 1   
    26     8    37 1   
    27     9    25 1   
    28     9    38 1   
    29     9    39 1   
    30    10    25 1   
    31    10    40 1   
    32    10    41 1   
    33    11    42 1   
    34    12    21 ar  
    35    12    28 ar  
    36    12    43 1   
    37    13    22 ar  
    38    14    15 ar  
    39    14    16 ar  
    40    14    44 1   
    41    15    18 ar  
    42    15    45 1   
    43    16    19 ar  
    44    16    46 1   
    45    17    20 ar  
    46    17    47 1   
    47    18    48 1   
    48    19    49 1   
    49    20    50 1   
    50    21    24 ar  
    51    21    51 1   
    52    22    52 1   
    53    23    24 ar  
    54    23    53 1   
    55    25    54 1   
    56    25    63 1   
    57    26    27 1   
    58    26    55 1   
    59    26    56 1   
    60    27    31 1   
    61    27    57 1   
    62    29    30 1   
    63    30    61 1   
    64    31    60 1   
    65    33    62 1   
    66    58    64 1   
    67    59    64 1   
    68    63    64 1   
    69    63    65 1   
    70    63    66 1   
@<TRIPOS>SUBSTRUCTURE
     1 5SS         1 TEMP              0 ****  ****    0 ROOT
