@<TRIPOS>MOLECULE
5ST
   70    73     1     0     0
SMALL
abcg2


@<TRIPOS>ATOM
      1 C13          3.8040     0.1840    -0.5770 cp         1 5ST      -0.079000
      2 C18         -3.0010     0.6520     0.7120 c          1 5ST       0.608100
      3 C17          0.0680    -0.1820    -0.9160 ca         1 5ST       0.332300
      4 C16          6.4370     0.1360     0.4390 ca         1 5ST       0.009000
      5 C15         -2.6240    -2.7010     0.1590 ca         1 5ST      -0.077300
      6 C19          8.9120     0.1750     0.4330 c          1 5ST       0.646100
      7 C20         -5.1720     0.8230    -0.5710 c6         1 5ST      -0.063900
      8 C21         -4.8080     2.2490     1.4610 c6         1 5ST      -0.063900
      9 C22         -6.2910     1.7580    -1.0200 c6         1 5ST      -0.072900
     10 C23         -5.9170     3.1860     0.9970 c6         1 5ST      -0.072900
     11 C24         -4.1320     1.5710     0.2750 c6         1 5ST      -0.141700
     12 C11          1.3440    -0.2410    -0.3750 ca         1 5ST      -0.146000
     13 C12          0.8560     0.7270    -2.8450 ca         1 5ST       0.341900
     14 C27         -1.4740    -2.1260    -0.6160 c3         1 5ST      -0.045100
     15 C1          -4.7740    -3.6790     1.6620 ca         1 5ST      -0.106000
     16 C2          -4.9940    -3.1070     0.4160 ca         1 5ST      -0.108000
     17 C3          -3.4780    -3.7650     2.1560 ca         1 5ST      -0.108000
     18 C4           4.9090     0.0770    -1.4190 ca         1 5ST      -0.061500
     19 C5           4.0490     0.2600     0.7950 ca         1 5ST      -0.061500
     20 C6          -3.9250    -2.6250    -0.3280 ca         1 5ST      -0.100000
     21 C7          -2.4160    -3.2780     1.4100 ca         1 5ST      -0.100000
     22 C8           6.2060     0.0490    -0.9350 ca         1 5ST      -0.156500
     23 C9           5.3360     0.2390     1.2940 ca         1 5ST      -0.156500
     24 C10          2.1620     0.7170    -2.3890 ca         1 5ST      -0.159000
     25 C14          2.4340     0.2170    -1.1150 cp         1 5ST       0.024000
     26 C25         -6.9660     2.4650     0.1520 c6         1 5ST      -0.063700
     27 C28         -8.0480     3.4380    -0.3040 c3         1 5ST       0.153800
     28 C29         -1.1240    -0.7010    -0.1450 c3         1 5ST       0.068400
     29 N30         -0.1750     0.2900    -2.1340 nb         1 5ST      -0.682000
     30 N31         -9.1390     2.7680    -0.9970 n8         1 5ST      -0.997200
     31 N32          7.6930     0.1090     1.0350 ns         1 5ST      -0.139000
     32 N33         -2.2400     0.1960    -0.3020 ns         1 5ST      -0.500900
     33 O34         -2.7870     0.3690     1.8810 o          1 5ST      -0.605100
     34 O35          9.1170     0.2610    -0.7550 o          1 5ST      -0.518000
     35 O36          9.8650     0.1310     1.3610 os         1 5ST      -0.458100
     36 H2          -4.7030     0.3750    -1.4500 hc         1 5ST       0.051200
     37 H3          -4.0750     2.8040     2.0510 hc         1 5ST       0.051200
     38 H4          -5.2330     1.4890     2.1220 hc         1 5ST       0.051200
     39 H5          -5.8710     2.5110    -1.6980 hc         1 5ST       0.038200
     40 H6          -7.0200     1.1860    -1.6000 hc         1 5ST       0.038200
     41 H7          -6.3960     3.6450     1.8670 hc         1 5ST       0.038200
     42 H8          -5.4860     4.0080     0.4120 hc         1 5ST       0.038200
     43 H9          -3.6870     2.3470    -0.3620 hc         1 5ST       0.057700
     44 H10          1.4810    -0.6540     0.6160 ha         1 5ST       0.127000
     45 H11          0.6320     1.1160    -3.8320 h4         1 5ST       0.019100
     46 H12         -0.5870    -2.7550    -0.5050 hc         1 5ST       0.056200
     47 H13         -1.7100    -2.0930    -1.6830 hc         1 5ST       0.056200
     48 H14         -5.6060    -4.0580     2.2420 ha         1 5ST       0.111000
     49 H15         -5.9990    -3.0370     0.0210 ha         1 5ST       0.110500
     50 H16         -3.2940    -4.2150     3.1240 ha         1 5ST       0.110500
     51 H17          4.7680    -0.0090    -2.4890 ha         1 5ST       0.118000
     52 H18          3.2300     0.3620     1.4950 ha         1 5ST       0.118000
     53 H19         -4.1090    -2.1840    -1.3000 ha         1 5ST       0.107000
     54 H20         -1.4090    -3.3480     1.8060 ha         1 5ST       0.107000
     55 H21          7.0210    -0.0460    -1.6340 ha         1 5ST       0.132500
     56 H22          5.4890     0.3120     2.3640 ha         1 5ST       0.132500
     57 H23          2.9470     1.1150    -3.0180 ha         1 5ST       0.126000
     58 H24         -7.4480     1.7050     0.7810 hc         1 5ST       0.065700
     59 H25         11.8310     0.0730     1.7900 h1         1 5ST       0.052367
     60 H26         11.4410    -0.5890     0.1900 h1         1 5ST       0.052367
     61 H27         11.4310     1.1690     0.4530 h1         1 5ST       0.052367
     62 H28         -8.4660     3.9260     0.5810 h1         1 5ST       0.025700
     63 H29         -7.5760     4.2350    -0.8990 h1         1 5ST       0.025700
     64 H30         -0.8760    -0.7340     0.9160 h1         1 5ST       0.088700
     65 H31         -9.8940     3.4250    -1.1450 hn         1 5ST       0.391000
     66 H32         -8.8400     2.4930    -1.9240 hn         1 5ST       0.391000
     67 H34          7.6980     0.0850     2.0440 hn         1 5ST       0.168000
     68 H35         -2.4710     0.4660    -1.2460 hn         1 5ST       0.326500
     69 H1          -5.5840    -0.0040     0.0160 hc         1 5ST       0.051200
     70 C26         11.2150     0.2020     0.9050 c3         1 5ST       0.170900
@<TRIPOS>BOND
     1     1    18 ar  
     2     1    19 ar  
     3     1    25 1   
     4     2    11 1   
     5     2    32 1   
     6     2    33 2   
     7     3    12 ar  
     8     3    28 1   
     9     3    29 ar  
    10     4    22 ar  
    11     4    23 ar  
    12     4    31 1   
    13     5    14 1   
    14     5    20 ar  
    15     5    21 ar  
    16     6    31 1   
    17     6    34 2   
    18     6    35 1   
    19     7     9 1   
    20     7    11 1   
    21     7    36 1   
    22     7    69 1   
    23     8    10 1   
    24     8    11 1   
    25     8    37 1   
    26     8    38 1   
    27     9    26 1   
    28     9    39 1   
    29     9    40 1   
    30    10    26 1   
    31    10    41 1   
    32    10    42 1   
    33    11    43 1   
    34    12    25 ar  
    35    12    44 1   
    36    13    24 ar  
    37    13    29 ar  
    38    13    45 1   
    39    14    28 1   
    40    14    46 1   
    41    14    47 1   
    42    15    16 ar  
    43    15    17 ar  
    44    15    48 1   
    45    16    20 ar  
    46    16    49 1   
    47    17    21 ar  
    48    17    50 1   
    49    18    22 ar  
    50    18    51 1   
    51    19    23 ar  
    52    19    52 1   
    53    20    53 1   
    54    21    54 1   
    55    22    55 1   
    56    23    56 1   
    57    24    25 ar  
    58    24    57 1   
    59    26    27 1   
    60    26    58 1   
    61    27    30 1   
    62    27    62 1   
    63    27    63 1   
    64    28    32 1   
    65    28    64 1   
    66    30    65 1   
    67    30    66 1   
    68    31    67 1   
    69    32    68 1   
    70    35    70 1   
    71    59    70 1   
    72    60    70 1   
    73    61    70 1   
@<TRIPOS>SUBSTRUCTURE
     1 5ST         1 TEMP              0 ****  ****    0 ROOT
