@<TRIPOS>MOLECULE
5ST
   70    73     1     0     0
SMALL
No Charge or Current Charge


@<TRIPOS>ATOM
      1 C13          3.9100     0.3040    -0.6160 cp         1 5ST      -0.079000
      2 C18         -3.1400     0.4490     0.4970 c          1 5ST       0.608100
      3 C17          0.1410    -0.1600    -1.1320 ca         1 5ST       0.332300
      4 C16          6.5260     0.2660     0.5330 ca         1 5ST       0.009000
      5 C15         -2.5970    -2.7920    -0.1500 ca         1 5ST      -0.077300
      6 C19          9.0820     0.1310     0.6780 c          1 5ST       0.646100
      7 C20         -5.7070     0.5180     0.2480 c6         1 5ST      -0.063900
      8 C21         -4.3910     2.6980     0.7320 c6         1 5ST      -0.063900
      9 C22         -6.9060     1.3700    -0.2400 c6         1 5ST      -0.072900
     10 C23         -5.6060     3.5190     0.2330 c6         1 5ST      -0.072900
     11 C24         -4.3690     1.2870     0.0900 c6         1 5ST      -0.141700
     12 C11          1.4150    -0.1940    -0.5350 ca         1 5ST      -0.146000
     13 C12          0.9960     0.8610    -3.0320 ca         1 5ST       0.341900
     14 C27         -1.3950    -2.1750    -0.8590 c3         1 5ST      -0.045100
     15 C1          -4.8230    -3.9080     1.1750 ca         1 5ST      -0.106000
     16 C2          -4.9650    -3.3860    -0.1220 ca         1 5ST      -0.108000
     17 C3          -3.5700    -3.8740     1.8100 ca         1 5ST      -0.108000
     18 C4           5.0640     0.1480    -1.4230 ca         1 5ST      -0.061500
     19 C5           4.1000     0.4410     0.7810 ca         1 5ST      -0.061500
     20 C6          -3.8560    -2.8310    -0.7830 ca         1 5ST      -0.100000
     21 C7          -2.4600    -3.3180     1.1490 ca         1 5ST      -0.100000
     22 C8           6.3530     0.1280    -0.8600 ca         1 5ST      -0.156500
     23 C9           5.3880     0.4220     1.3440 ca         1 5ST      -0.156500
     24 C10          2.2960     0.8610    -2.5040 ca         1 5ST      -0.159000
     25 C14          2.5390     0.3240    -1.2190 cp         1 5ST       0.024000
     26 C25         -6.9480     2.7630     0.4580 c6         1 5ST      -0.063700
     27 C28         -8.1520     3.6320    -0.0180 c3         1 5ST       0.153800
     28 C29         -1.0800    -0.7310    -0.3940 c3         1 5ST       0.068400
     29 N30         -0.0680     0.3610    -2.3670 nb         1 5ST      -0.682000
     30 N31         -9.4730     3.0520     0.2940 n8         1 5ST      -0.997200
     31 N32          7.7960     0.2560     1.1700 ns         1 5ST      -0.139000
     32 N33         -2.2660     0.1370    -0.5210 ns         1 5ST      -0.500900
     33 O34         -2.9530     0.0950     1.6530 o          1 5ST      -0.605100
     34 O35          9.4030    -0.0030    -0.4960 o          1 5ST      -0.518000
     35 O36          9.9630     0.1840     1.7240 os         1 5ST      -0.458100
     36 H2          -5.6690    -0.4250    -0.3150 hc         1 5ST       0.051200
     37 H3          -3.4600     3.2330     0.5000 hc         1 5ST       0.051200
     38 H4          -4.4340     2.6060     1.8260 hc         1 5ST       0.051200
     39 H5          -6.8410     1.5020    -1.3300 hc         1 5ST       0.038200
     40 H6          -7.8350     0.8160    -0.0500 hc         1 5ST       0.038200
     41 H7          -5.6290     4.4860     0.7540 hc         1 5ST       0.038200
     42 H8          -5.4820     3.7460    -0.8350 hc         1 5ST       0.038200
     43 H9          -4.2570     1.4560    -0.9910 hc         1 5ST       0.057700
     44 H10          1.5290    -0.6380     0.4490 ha         1 5ST       0.127000
     45 H11          0.7990     1.2770    -4.0200 h4         1 5ST       0.019100
     46 H12         -0.5090    -2.8000    -0.6960 hc         1 5ST       0.056200
     47 H13         -1.5620    -2.1710    -1.9440 hc         1 5ST       0.056200
     48 H14         -5.6810    -4.3360     1.6870 ha         1 5ST       0.111000
     49 H15         -5.9350    -3.4100    -0.6140 ha         1 5ST       0.110500
     50 H16         -3.4580    -4.2770     2.8140 ha         1 5ST       0.110500
     51 H17          4.9620     0.0260    -2.4980 ha         1 5ST       0.118000
     52 H18          3.2440     0.5780     1.4360 ha         1 5ST       0.118000
     53 H19         -3.9770    -2.4240    -1.7840 ha         1 5ST       0.107000
     54 H20         -1.4950    -3.2920     1.6500 ha         1 5ST       0.107000
     55 H21          7.2000     0.0010    -1.5250 ha         1 5ST       0.132500
     56 H22          5.4980     0.5340     2.4210 ha         1 5ST       0.132500
     57 H23          3.1020     1.2920    -3.0890 ha         1 5ST       0.126000
     58 H24         -7.0830     2.6130     1.5380 hc         1 5ST       0.065700
     59 H25         11.9590     0.1300     2.3500 h1         1 5ST       0.052367
     60 H26         11.5920    -0.8860     0.9400 h1         1 5ST       0.052367
     61 H27         11.6950     0.8840     0.7640 h1         1 5ST       0.052367
     62 H28         -8.0920     4.6180     0.4630 h1         1 5ST       0.025700
     63 H29         -8.0820     3.7780    -1.1050 h1         1 5ST       0.025700
     64 H30         -0.8160    -0.7830     0.6700 h1         1 5ST       0.088700
     65 H31        -10.2040     3.6450    -0.1190 hn         1 5ST       0.391000
     66 H32         -9.5700     2.1630    -0.2090 hn         1 5ST       0.391000
     67 H34          7.7570     0.3590     2.1750 hn         1 5ST       0.168000
     68 H35         -2.4770     0.5100    -1.4390 hn         1 5ST       0.326500
     69 H1          -5.8540     0.2450     1.3020 hc         1 5ST       0.051200
     70 C26         11.3690     0.0730     1.4270 c3         1 5ST       0.170900
@<TRIPOS>BOND
     1     1    18 ar  
     2     1    19 ar  
     3     1    25 1   
     4     2    11 1   
     5     2    32 1   
     6     2    33 2   
     7     3    12 ar  
     8     3    28 1   
     9     3    29 ar  
    10     4    22 ar  
    11     4    23 ar  
    12     4    31 1   
    13     5    14 1   
    14     5    20 ar  
    15     5    21 ar  
    16     6    31 1   
    17     6    34 2   
    18     6    35 1   
    19     7     9 1   
    20     7    11 1   
    21     7    36 1   
    22     7    69 1   
    23     8    10 1   
    24     8    11 1   
    25     8    37 1   
    26     8    38 1   
    27     9    26 1   
    28     9    39 1   
    29     9    40 1   
    30    10    26 1   
    31    10    41 1   
    32    10    42 1   
    33    11    43 1   
    34    12    25 ar  
    35    12    44 1   
    36    13    24 ar  
    37    13    29 ar  
    38    13    45 1   
    39    14    28 1   
    40    14    46 1   
    41    14    47 1   
    42    15    16 ar  
    43    15    17 ar  
    44    15    48 1   
    45    16    20 ar  
    46    16    49 1   
    47    17    21 ar  
    48    17    50 1   
    49    18    22 ar  
    50    18    51 1   
    51    19    23 ar  
    52    19    52 1   
    53    20    53 1   
    54    21    54 1   
    55    22    55 1   
    56    23    56 1   
    57    24    25 ar  
    58    24    57 1   
    59    26    27 1   
    60    26    58 1   
    61    27    30 1   
    62    27    62 1   
    63    27    63 1   
    64    28    32 1   
    65    28    64 1   
    66    30    65 1   
    67    30    66 1   
    68    31    67 1   
    69    32    68 1   
    70    35    70 1   
    71    59    70 1   
    72    60    70 1   
    73    61    70 1   
@<TRIPOS>SUBSTRUCTURE
     1 5ST         1 TEMP              0 ****  ****    0 ROOT
