@<TRIPOS>MOLECULE
5SU
   68    72     1     0     0
SMALL
No Charge or Current Charge


@<TRIPOS>ATOM
      1 C18         -1.9100     0.3680    -0.2520 c          1 5SU       0.607300
      2 C16         -0.8880     3.0980    -1.9380 ca         1 5SU      -0.078300
      3 C15          0.1820     3.0170    -0.8540 c3         1 5SU      -0.047100
      4 C20         -0.6160     2.6300    -3.2380 ca         1 5SU      -0.099500
      5 C21         -1.6040     2.6970    -4.2370 ca         1 5SU      -0.107500
      6 C22         -2.8690     3.2310    -3.9400 ca         1 5SU      -0.107000
      7 C23         -3.1460     3.6990    -2.6450 ca         1 5SU      -0.107500
      8 C24         -2.1590     3.6340    -1.6470 ca         1 5SU      -0.099500
      9 C11          7.7070    -0.4560     0.4740 ca         1 5SU       0.010000
     10 C12          7.5430     0.5940     1.3940 ca         1 5SU      -0.157000
     11 C34         -8.0070    -1.3510     2.0290 ca         1 5SU      -0.091000
     12 C33         -7.6760    -2.0500     0.8580 ca         1 5SU      -0.097000
     13 C1           1.4250     1.5750     0.8390 ca         1 5SU       0.333300
     14 N2           1.1440     2.0410     2.0820 nb         1 5SU      -0.685000
     15 C3           2.1300     2.0200     3.0050 ca         1 5SU       0.342900
     16 C4           3.4210     1.5420     2.7320 ca         1 5SU      -0.159000
     17 C5           3.7390     1.0510     1.4450 cp         1 5SU       0.025000
     18 C6           2.6960     1.0800     0.4900 ca         1 5SU      -0.145000
     19 C7           5.1040     0.5330     1.1110 cp         1 5SU      -0.081000
     20 C8           6.2640     1.0810     1.7100 ca         1 5SU      -0.060500
     21 C9           6.5610    -1.0130    -0.1300 ca         1 5SU      -0.157000
     22 C10          5.2810    -0.5250     0.1850 ca         1 5SU      -0.060500
     23 C14          0.2940     1.6160    -0.2000 c3         1 5SU       0.067400
     24 N17         -0.9990     1.1890     0.3690 ns         1 5SU      -0.490900
     25 O19         -1.6990    -0.1550    -1.3360 o          1 5SU      -0.596100
     26 C25          9.5290    -1.8790    -0.6350 c          1 5SU       0.646100
     27 O26          8.8780    -2.6130    -1.3660 o          1 5SU      -0.516000
     28 O27         10.8930    -1.9050    -0.5230 os         1 5SU      -0.459100
     29 C28         11.6160    -2.8630    -1.3190 c3         1 5SU       0.170900
     30 C29         -3.1690     0.1640     0.5150 ce         1 5SU      -0.260200
     31 C30         -4.2140    -0.6110     0.0900 cf         1 5SU      -0.104200
     32 C31         -5.5180    -0.8850     0.7500 ca         1 5SU      -0.019800
     33 C32         -6.4410    -1.8270     0.2140 ca         1 5SU       0.005800
     34 C35         -7.1040    -0.4240     2.5620 ca         1 5SU       0.127000
     35 C36         -5.8730    -0.1910     1.9300 ca         1 5SU      -0.091000
     36 N37         -6.1630    -2.5550    -0.9430 na         1 5SU       0.000500
     37 C38         -6.8150    -2.4150    -2.1320 cc         1 5SU       0.391400
     38 N39         -6.3260    -3.3630    -2.9130 nd         1 5SU      -0.379000
     39 N40         -5.4060    -4.0680    -2.1550 nd         1 5SU      -0.038000
     40 N41         -5.3120    -3.6020    -0.9350 nc         1 5SU      -0.184800
     41 Cl4         -7.5170     0.4570     4.0270 cl         1 5SU      -0.180000
     42 H53          1.1570     3.2850    -1.2790 hc         1 5SU       0.056200
     43 H52         -0.0170     3.7600    -0.0720 hc         1 5SU       0.056200
     44 H55          0.3600     2.2120    -3.4750 ha         1 5SU       0.107500
     45 H56         -1.3880     2.3330    -5.2390 ha         1 5SU       0.110500
     46 H57         -3.6340     3.2810    -4.7130 ha         1 5SU       0.111000
     47 H58         -4.1260     4.1110    -2.4140 ha         1 5SU       0.110500
     48 H59         -2.3830     3.9940    -0.6460 ha         1 5SU       0.107500
     49 H49          8.4140     1.0400     1.8700 ha         1 5SU       0.133500
     50 H66         -8.9600    -1.5280     2.5220 ha         1 5SU       0.141000
     51 H65         -8.3810    -2.7740     0.4520 ha         1 5SU       0.134000
     52 H43          1.8760     2.3960     3.9950 h4         1 5SU       0.019100
     53 H44          4.1610     1.5430     3.5270 ha         1 5SU       0.125000
     54 H45          2.8720     0.7340    -0.5240 ha         1 5SU       0.130000
     55 H46          6.1750     1.9030     2.4160 ha         1 5SU       0.118500
     56 H47          6.6370    -1.8280    -0.8440 ha         1 5SU       0.133500
     57 H48          4.4160    -0.9850    -0.2870 ha         1 5SU       0.118500
     58 H50          9.7460    -0.4060     0.7200 hn         1 5SU       0.167000
     59 H51          0.5610     0.9060    -0.9940 h1         1 5SU       0.092700
     60 H54         -1.2450     1.5400     1.2860 hn         1 5SU       0.330500
     61 H62         12.6950    -2.7770    -1.1340 h1         1 5SU       0.052033
     62 H61         11.3110    -3.8880    -1.0730 h1         1 5SU       0.052033
     63 H60         11.4420    -2.6950    -2.3900 h1         1 5SU       0.052033
     64 H63         -3.2250     0.6780     1.4690 ha         1 5SU       0.179000
     65 H64         -4.0800    -1.0950    -0.8790 ha         1 5SU       0.214000
     66 H67         -5.2040     0.5420     2.3680 ha         1 5SU       0.140000
     67 H68         -7.5660    -1.6670    -2.3500 h5         1 5SU       0.077100
     68 N13          9.0300    -0.8990     0.2030 ns         1 5SU      -0.140000
@<TRIPOS>BOND
     1     1    24 1   
     2     1    25 2   
     3     1    30 1   
     4     2     3 1   
     5     2     4 ar  
     6     2     8 ar  
     7     3    23 1   
     8     3    42 1   
     9     3    43 1   
    10     4     5 ar  
    11     4    44 1   
    12     5     6 ar  
    13     5    45 1   
    14     6     7 ar  
    15     6    46 1   
    16     7     8 ar  
    17     7    47 1   
    18     8    48 1   
    19     9    10 ar  
    20     9    21 ar  
    21     9    68 1   
    22    10    20 ar  
    23    10    49 1   
    24    11    12 ar  
    25    11    34 ar  
    26    11    50 1   
    27    12    33 ar  
    28    12    51 1   
    29    13    14 ar  
    30    13    18 ar  
    31    13    23 1   
    32    14    15 ar  
    33    15    16 ar  
    34    15    52 1   
    35    16    17 ar  
    36    16    53 1   
    37    17    18 ar  
    38    17    19 1   
    39    18    54 1   
    40    19    20 ar  
    41    19    22 ar  
    42    20    55 1   
    43    21    22 ar  
    44    21    56 1   
    45    22    57 1   
    46    23    24 1   
    47    23    59 1   
    48    24    60 1   
    49    26    27 2   
    50    26    28 1   
    51    26    68 1   
    52    28    29 1   
    53    29    61 1   
    54    29    62 1   
    55    29    63 1   
    56    30    31 2   
    57    30    64 1   
    58    31    32 1   
    59    31    65 1   
    60    32    33 ar  
    61    32    35 ar  
    62    33    36 1   
    63    34    35 ar  
    64    34    41 1   
    65    35    66 1   
    66    36    37 1   
    67    36    40 1   
    68    37    38 2   
    69    37    67 1   
    70    38    39 1   
    71    39    40 2   
    72    58    68 1   
@<TRIPOS>SUBSTRUCTURE
     1 5SU         1 TEMP              0 ****  ****    0 ROOT
