@<TRIPOS>MOLECULE
5SU
   68    72     1     0     0
SMALL
bcc


@<TRIPOS>ATOM
      1 C18         -1.9180     0.3700    -0.3310 c          1 5SU       0.674300
      2 C16         -0.7730     3.1640    -1.7950 ca         1 5SU      -0.078300
      3 C15          0.2790     2.9350    -0.7510 c3         1 5SU      -0.047100
      4 C20         -0.5190     2.8710    -3.1330 ca         1 5SU      -0.117500
      5 C21         -1.5020     3.0400    -4.0970 ca         1 5SU      -0.125500
      6 C22         -2.7620     3.5020    -3.7350 ca         1 5SU      -0.125000
      7 C23         -3.0260     3.7960    -2.4040 ca         1 5SU      -0.125500
      8 C24         -2.0370     3.6290    -1.4440 ca         1 5SU      -0.117500
      9 C11          7.5850    -0.5060     0.4500 ca         1 5SU       0.102600
     10 C12          7.3660     0.4180     1.4760 ca         1 5SU      -0.175000
     11 C34         -8.0650    -0.9020     1.6950 ca         1 5SU      -0.109000
     12 C33         -7.5640    -1.8970     0.8750 ca         1 5SU      -0.115000
     13 C1           1.3510     1.3180     0.8160 ca         1 5SU       0.398600
     14 N2           1.0240     1.6530     2.0590 nb         1 5SU      -0.685000
     15 C3           1.9650     1.5660     2.9910 ca         1 5SU       0.408200
     16 C4           3.2600     1.1520     2.7350 ca         1 5SU      -0.242300
     17 C5           3.6180     0.8040     1.4320 cp         1 5SU       0.025000
     18 C6           2.6230     0.8950     0.4600 ca         1 5SU      -0.228300
     19 C7           4.9800     0.3560     1.0980 cp         1 5SU      -0.081000
     20 C8           6.0900     0.8360     1.7950 ca         1 5SU      -0.078500
     21 C9           6.4830    -0.9990    -0.2510 ca         1 5SU      -0.175000
     22 C10          5.2090    -0.5630     0.0770 ca         1 5SU      -0.078500
     23 C14          0.2770     1.4810    -0.2340 c3         1 5SU       0.067400
     24 N17         -1.0090     1.1270     0.3090 ns         1 5SU      -0.557900
     25 O19         -1.7240    -0.1610    -1.4150 o          1 5SU      -0.596100
     26 C25          9.3930    -1.7130    -0.7400 c          1 5SU       0.762100
     27 O26          8.7420    -2.3280    -1.5520 o          1 5SU      -0.565000
     28 O27         10.7200    -1.7680    -0.6430 os         1 5SU      -0.435900
     29 C28         11.4010    -2.6190    -1.5620 c3         1 5SU       0.147700
     30 C29         -3.1970     0.2290     0.4120 ce         1 5SU      -0.210200
     31 C30         -4.2050    -0.4780    -0.0980 cf         1 5SU      -0.054200
     32 C31         -5.5130    -0.6350     0.5400 ca         1 5SU      -0.019800
     33 C32         -6.3090    -1.7590     0.3050 ca         1 5SU       0.005800
     34 C35         -7.2800     0.2140     1.9440 ca         1 5SU       0.035400
     35 C36         -6.0260     0.3550     1.3780 ca         1 5SU      -0.109000
     36 N37         -5.8300    -2.8050    -0.5180 na         1 5SU       0.000500
     37 C38         -6.3800    -3.3500    -1.6090 cc         1 5SU       0.391400
     38 N39         -5.6040    -4.3190    -2.0120 nd         1 5SU      -0.379000
     39 N40         -4.5820    -4.3530    -1.1530 nd         1 5SU      -0.038000
     40 N41         -4.7020    -3.4620    -0.2550 nc         1 5SU      -0.184800
     41 CL4         -7.8870     1.4640     2.9690 cl         1 5SU      -0.088400
     42 H53          1.2720     3.1520    -1.1530 hc         1 5SU       0.056200
     43 H52          0.1290     3.6080     0.0970 hc         1 5SU       0.056200
     44 H55          0.4600     2.5080    -3.4250 ha         1 5SU       0.125500
     45 H56         -1.2840     2.8140    -5.1330 ha         1 5SU       0.128500
     46 H57         -3.5300     3.6350    -4.4860 ha         1 5SU       0.129000
     47 H58         -4.0040     4.1580    -2.1110 ha         1 5SU       0.128500
     48 H59         -2.2520     3.8670    -0.4090 ha         1 5SU       0.125500
     49 H49          8.2090     0.8170     2.0290 ha         1 5SU       0.151500
     50 H66         -9.0460    -1.0040     2.1370 ha         1 5SU       0.159000
     51 H65         -8.1520    -2.7860     0.6900 ha         1 5SU       0.152000
     52 H43          1.6730     1.8330     4.0000 h4         1 5SU       0.019100
     53 H44          3.9670     1.0830     3.5510 ha         1 5SU       0.143000
     54 H45          2.8330     0.6580    -0.5750 ha         1 5SU       0.148000
     55 H46          5.9690     1.5660     2.5850 ha         1 5SU       0.136500
     56 H47          6.5980    -1.7200    -1.0420 ha         1 5SU       0.151500
     57 H48          4.3750    -0.9770    -0.4760 ha         1 5SU       0.136500
     58 H50          9.5920    -0.4360     0.8120 hn         1 5SU       0.333500
     59 H51          0.4840     0.8100    -1.0680 h1         1 5SU       0.092700
     60 H54         -1.2380     1.5160     1.2110 hn         1 5SU       0.330500
     61 H62         12.4580    -2.5010    -1.3440 h1         1 5SU       0.052033
     62 H61         11.1200    -3.6630    -1.4240 h1         1 5SU       0.052033
     63 H60         11.2130    -2.3280    -2.5950 h1         1 5SU       0.052033
     64 H63         -3.2800     0.7100     1.3800 ha         1 5SU       0.129000
     65 H64         -4.0550    -0.9650    -1.0550 ha         1 5SU       0.164000
     66 H67         -5.4520     1.2530     1.5620 ha         1 5SU       0.158000
     67 H68         -7.3000    -3.0170    -2.0600 h5         1 5SU       0.077100
     68 N13          8.9070    -0.8670     0.2080 ns         1 5SU      -0.466100
@<TRIPOS>BOND
     1     1    24 1   
     2     1    25 2   
     3     1    30 1   
     4     2     3 1   
     5     2     4 ar  
     6     2     8 ar  
     7     3    23 1   
     8     3    42 1   
     9     3    43 1   
    10     4     5 ar  
    11     4    44 1   
    12     5     6 ar  
    13     5    45 1   
    14     6     7 ar  
    15     6    46 1   
    16     7     8 ar  
    17     7    47 1   
    18     8    48 1   
    19     9    10 ar  
    20     9    21 ar  
    21     9    68 1   
    22    10    20 ar  
    23    10    49 1   
    24    11    12 ar  
    25    11    34 ar  
    26    11    50 1   
    27    12    33 ar  
    28    12    51 1   
    29    13    14 ar  
    30    13    18 ar  
    31    13    23 1   
    32    14    15 ar  
    33    15    16 ar  
    34    15    52 1   
    35    16    17 ar  
    36    16    53 1   
    37    17    18 ar  
    38    17    19 1   
    39    18    54 1   
    40    19    20 ar  
    41    19    22 ar  
    42    20    55 1   
    43    21    22 ar  
    44    21    56 1   
    45    22    57 1   
    46    23    24 1   
    47    23    59 1   
    48    24    60 1   
    49    26    27 2   
    50    26    28 1   
    51    26    68 1   
    52    28    29 1   
    53    29    61 1   
    54    29    62 1   
    55    29    63 1   
    56    30    31 2   
    57    30    64 1   
    58    31    32 1   
    59    31    65 1   
    60    32    33 ar  
    61    32    35 ar  
    62    33    36 1   
    63    34    35 ar  
    64    34    41 1   
    65    35    66 1   
    66    36    37 1   
    67    36    40 1   
    68    37    38 2   
    69    37    67 1   
    70    38    39 1   
    71    39    40 2   
    72    58    68 1   
@<TRIPOS>SUBSTRUCTURE
     1 5SU         1 TEMP              0 ****  ****    0 ROOT
