@<TRIPOS>MOLECULE
5SV
   96    98     1     0     0
SMALL
No Charge or Current Charge


@<TRIPOS>ATOM
      1 C2          -0.1250    -1.2360     0.5740 ca         1 5SV       0.159900
      2 C4           2.0260    -1.0450    -0.1830 ca         1 5SV       0.122500
      3 C6           0.2500    -1.7110    -1.6330 ca         1 5SV       0.439900
      4 C5           1.6170    -1.4210    -1.4380 ca         1 5SV      -0.089600
      5 N1          -0.6300    -1.6210    -0.6240 nb         1 5SV      -0.317000
      6 N3           1.1680    -0.9430     0.8520 nb         1 5SV      -0.211000
      7 C8           3.7430    -1.1160    -1.6030 cc         1 5SV       0.440700
      8 C9           4.3830     3.3770    -1.2040 c3         1 5SV       0.231600
      9 C10          3.0870     3.4780    -0.3760 c3         1 5SV      -0.085400
     10 C11          1.8920     2.7810    -1.0590 c3         1 5SV      -0.074400
     11 C12          0.6200     2.7650    -0.1860 c3         1 5SV      -0.076400
     12 C13         -0.5960     2.1520    -0.9100 c3         1 5SV      -0.070400
     13 C14         -1.8400     2.0270    -0.0040 c3         1 5SV      -0.081400
     14 C15         -3.0520     1.3990    -0.7250 c3         1 5SV      -0.072400
     15 O2P          7.7430     5.0870    -0.6640 o          1 5SV      -0.827000
     16 P            6.9510     3.8420    -0.8870 p5         1 5SV       1.407800
     17 O1P          7.1280     3.3280    -2.2770 o          1 5SV      -0.827000
     18 O5           7.3320     2.7380     0.2250 os         1 5SV      -0.574400
     19 C30          6.9890     1.3520     0.0810 c3         1 5SV       0.217600
     20 C29          6.0620     0.9320     1.2630 c5         1 5SV       0.138300
     21 O4           4.6900     0.8060     0.7910 os         1 5SV      -0.417000
     22 C3           6.4180    -0.4730     1.8630 c5         1 5SV       0.104300
     23 O3           5.9490    -0.6480     3.2070 oh         1 5SV      -0.709000
     24 C7           5.6340    -1.3870     0.8820 c5         1 5SV       0.073300
     25 O2           5.4970    -2.7300     1.3910 oh         1 5SV      -0.703000
     26 C1           4.2940    -0.5820     0.8240 c5         1 5SV       0.319300
     27 N9           3.3760    -0.8560    -0.2790 na         1 5SV      -0.289300
     28 N7           2.6760    -1.4640    -2.3500 nd         1 5SV      -0.569100
     29 N6          -0.2550    -2.0980    -2.8340 nv         1 5SV      -1.073900
     30 O3P          5.4050     4.1010    -0.5160 os         1 5SV      -0.608400
     31 C16         -4.2860     1.2450     0.1910 c3         1 5SV      -0.075400
     32 C17         -5.4960     0.6110    -0.5280 c3         1 5SV      -0.074400
     33 C18         -6.7300     0.4560     0.3880 c3         1 5SV      -0.073400
     34 C19         -7.9410    -0.1780    -0.3310 c3         1 5SV      -0.075400
     35 C20         -9.1740    -0.3340     0.5850 c3         1 5SV      -0.073400
     36 C21        -10.3850    -0.9670    -0.1340 c3         1 5SV      -0.075400
     37 C22        -11.6190    -1.1230     0.7830 c3         1 5SV      -0.073400
     38 C23        -12.8300    -1.7570     0.0640 c3         1 5SV      -0.074400
     39 C24        -14.0630    -1.9130     0.9800 c3         1 5SV      -0.073400
     40 H1          -0.8310    -1.1550     1.3980 h5         1 5SV       0.033100
     41 H2           4.7690    -1.0420    -1.9500 h5         1 5SV       0.124800
     42 H3           4.6520     2.3220    -1.3370 h1         1 5SV       0.019200
     43 H4           4.2120     3.8130    -2.1970 h1         1 5SV       0.019200
     44 H5           3.2550     3.0330     0.6110 hc         1 5SV       0.045200
     45 H6           2.8440     4.5350    -0.2150 hc         1 5SV       0.045200
     46 H7           1.6760     3.2890    -2.0070 hc         1 5SV       0.032700
     47 H8           2.1680     1.7490    -1.3060 hc         1 5SV       0.032700
     48 H9           0.8240     2.1940     0.7290 hc         1 5SV       0.038200
     49 H10          0.3760     3.7890     0.1230 hc         1 5SV       0.038200
     50 H11         -0.8440     2.7690    -1.7830 hc         1 5SV       0.029700
     51 H12         -0.3260     1.1610    -1.2910 hc         1 5SV       0.029700
     52 H13         -1.5870     1.4180     0.8720 hc         1 5SV       0.043700
     53 H14         -2.1170     3.0220     0.3670 hc         1 5SV       0.043700
     54 H15         -3.3190     2.0200    -1.5890 hc         1 5SV       0.031700
     55 H16         -2.7690     0.4130    -1.1140 hc         1 5SV       0.031700
     56 H18          6.4910     1.1450    -0.8750 h1         1 5SV       0.028700
     57 H19          7.9060     0.7500     0.1090 h1         1 5SV       0.028700
     58 H20          6.1090     1.7080     2.0380 h1         1 5SV       0.100700
     59 H21          7.4990    -0.6690     1.8150 h1         1 5SV       0.050700
     60 H22          5.7000    -1.6030     3.2630 ho         1 5SV       0.509000
     61 H23          6.1190    -1.3990    -0.1050 h1         1 5SV       0.065700
     62 H24          6.2610    -3.2590     1.0570 ho         1 5SV       0.505000
     63 H25          3.7270    -0.7650     1.7460 h2         1 5SV       0.106700
     64 H26          0.3440    -1.9670    -3.6450 hn         1 5SV       0.499000
     65 H27         -1.2560    -2.0130    -2.9850 hn         1 5SV       0.499000
     66 H28         -4.0160     0.6260     1.0560 hc         1 5SV       0.038700
     67 H29         -4.5720     2.2310     0.5780 hc         1 5SV       0.038700
     68 H30         -5.7660     1.2300    -1.3930 hc         1 5SV       0.034700
     69 H31         -5.2100    -0.3740    -0.9160 hc         1 5SV       0.034700
     70 H32         -6.4600    -0.1630     1.2530 hc         1 5SV       0.037200
     71 H33         -7.0170     1.4410     0.7760 hc         1 5SV       0.037200
     72 H34         -8.2110     0.4410    -1.1960 hc         1 5SV       0.035700
     73 H35         -7.6540    -1.1630    -0.7190 hc         1 5SV       0.035700
     74 H36         -8.9040    -0.9530     1.4500 hc         1 5SV       0.037200
     75 H37         -9.4610     0.6520     0.9730 hc         1 5SV       0.037200
     76 H38        -10.6550    -0.3480    -0.9990 hc         1 5SV       0.036700
     77 H39        -10.0980    -1.9530    -0.5220 hc         1 5SV       0.036700
     78 H40        -11.3490    -1.7420     1.6470 hc         1 5SV       0.037200
     79 H41        -11.9050    -0.1380     1.1710 hc         1 5SV       0.037200
     80 H42        -13.0990    -1.1380    -0.8010 hc         1 5SV       0.036700
     81 H43        -13.7930    -2.5320     1.8450 hc         1 5SV       0.036700
     82 H44        -14.3500    -0.9270     1.3680 hc         1 5SV       0.036700
     83 C25        -15.2740    -2.5460     0.2610 c3         1 5SV      -0.075400
     84 C26        -16.5070    -2.7020     1.1770 c3         1 5SV      -0.075400
     85 C27        -17.7180    -3.3360     0.4590 c3         1 5SV      -0.074400
     86 C28        -18.9490    -3.4920     1.3720 c3         1 5SV      -0.088100
     87 H45        -12.5430    -2.7420    -0.3250 hc         1 5SV       0.036700
     88 H46        -15.5440    -1.9270    -0.6040 hc         1 5SV       0.036700
     89 H47        -14.9870    -3.5320    -0.1270 hc         1 5SV       0.036700
     90 H48        -16.2380    -3.3210     2.0420 hc         1 5SV       0.036700
     91 H49        -16.7950    -1.7170     1.5660 hc         1 5SV       0.036700
     92 H50        -17.9920    -2.7190    -0.4060 hc         1 5SV       0.036200
     93 H51        -17.4360    -4.3230     0.0710 hc         1 5SV       0.036200
     94 H52        -19.2790    -2.5160     1.7490 hc         1 5SV       0.030367
     95 H53        -19.7810    -3.9450     0.8200 hc         1 5SV       0.030367
     96 H54        -18.7170    -4.1350     2.2300 hc         1 5SV       0.030367
@<TRIPOS>BOND
     1     1     5 ar  
     2     1     6 ar  
     3     1    40 1   
     4     2     4 ar  
     5     2     6 ar  
     6     2    27 1   
     7     3     4 ar  
     8     3     5 ar  
     9     3    29 1   
    10     4    28 1   
    11     7    27 1   
    12     7    28 2   
    13     7    41 1   
    14     8     9 1   
    15     8    30 1   
    16     8    42 1   
    17     8    43 1   
    18     9    10 1   
    19     9    44 1   
    20     9    45 1   
    21    10    11 1   
    22    10    46 1   
    23    10    47 1   
    24    11    12 1   
    25    11    48 1   
    26    11    49 1   
    27    12    13 1   
    28    12    50 1   
    29    12    51 1   
    30    13    14 1   
    31    13    52 1   
    32    13    53 1   
    33    14    31 1   
    34    14    54 1   
    35    14    55 1   
    36    15    16 1   
    37    16    17 1   
    38    16    18 1   
    39    16    30 1   
    40    18    19 1   
    41    19    20 1   
    42    19    56 1   
    43    19    57 1   
    44    20    21 1   
    45    20    22 1   
    46    20    58 1   
    47    21    26 1   
    48    22    23 1   
    49    22    24 1   
    50    22    59 1   
    51    23    60 1   
    52    24    25 1   
    53    24    26 1   
    54    24    61 1   
    55    25    62 1   
    56    26    27 1   
    57    26    63 1   
    58    29    64 1   
    59    29    65 1   
    60    31    32 1   
    61    31    66 1   
    62    31    67 1   
    63    32    33 1   
    64    32    68 1   
    65    32    69 1   
    66    33    34 1   
    67    33    70 1   
    68    33    71 1   
    69    34    35 1   
    70    34    72 1   
    71    34    73 1   
    72    35    36 1   
    73    35    74 1   
    74    35    75 1   
    75    36    37 1   
    76    36    76 1   
    77    36    77 1   
    78    37    38 1   
    79    37    78 1   
    80    37    79 1   
    81    38    39 1   
    82    38    80 1   
    83    38    87 1   
    84    39    81 1   
    85    39    82 1   
    86    39    83 1   
    87    83    84 1   
    88    83    88 1   
    89    83    89 1   
    90    84    85 1   
    91    84    90 1   
    92    84    91 1   
    93    85    86 1   
    94    85    92 1   
    95    85    93 1   
    96    86    94 1   
    97    86    95 1   
    98    86    96 1   
@<TRIPOS>SUBSTRUCTURE
     1 5SV         1 TEMP              0 ****  ****    0 ROOT
