@<TRIPOS>MOLECULE
5SV
   96    98     1     0     0
SMALL
abcg2


@<TRIPOS>ATOM
      1 C2           1.1940    -1.6520     1.4160 ca         1 5SV       0.159900
      2 C4           3.0280    -0.8450     0.5140 ca         1 5SV       0.122500
      3 C6           1.2140    -1.4780    -0.8770 ca         1 5SV       0.439900
      4 C5           2.5190    -0.9670    -0.7690 ca         1 5SV      -0.089600
      5 N1           0.5770    -1.8190     0.2480 nb         1 5SV      -0.317000
      6 N3           2.4060    -1.1760     1.6440 nb         1 5SV      -0.211000
      7 C8           4.4440    -0.1220    -0.9930 cc         1 5SV       0.440700
      8 C9           3.7030     3.2310    -1.7090 c3         1 5SV       0.231600
      9 C10          2.5700     2.8830    -0.7650 c3         1 5SV      -0.085400
     10 C11          1.2770     2.5630    -1.5010 c3         1 5SV      -0.074400
     11 C12          0.1760     2.0710    -0.5710 c3         1 5SV      -0.076400
     12 C13         -1.1170     1.7320    -1.3020 c3         1 5SV      -0.070400
     13 C14         -2.1380     1.0180    -0.4250 c3         1 5SV      -0.081400
     14 C15         -3.4790     0.8110    -1.1170 c3         1 5SV      -0.072400
     15 O2P          6.7150     4.6370    -2.2700 o          1 5SV      -0.827000
     16 P            6.3540     3.3130    -1.6730 p5         1 5SV       1.407800
     17 O1P          6.4430     2.0580    -2.4950 o          1 5SV      -0.827000
     18 O5           7.2620     3.1710    -0.3130 os         1 5SV      -0.574400
     19 C30          7.6780     1.9250     0.2010 c3         1 5SV       0.217600
     20 C29          6.9550     1.5710     1.4890 c5         1 5SV       0.138300
     21 O4           5.5520     1.3970     1.2760 os         1 5SV      -0.417000
     22 C3           7.4470     0.2510     2.0710 c5         1 5SV       0.104300
     23 O3           7.2500     0.2690     3.4620 oh         1 5SV      -0.709000
     24 C7           6.4950    -0.7390     1.3970 c5         1 5SV       0.073300
     25 O2           6.3210    -1.9480     2.0730 oh         1 5SV      -0.703000
     26 C1           5.1890     0.0540     1.4090 c5         1 5SV       0.319300
     27 N9           4.2740    -0.3080     0.3540 na         1 5SV      -0.289300
     28 N7           3.4200    -0.5080    -1.6960 nd         1 5SV      -0.569100
     29 N6           0.5960    -1.6370    -2.0510 nv         1 5SV      -1.073900
     30 O3P          4.8880     3.4200    -0.9570 os         1 5SV      -0.608400
     31 C16         -4.5000     0.0700    -0.2630 c3         1 5SV      -0.075400
     32 C17         -5.8820     0.0160    -0.9020 c3         1 5SV      -0.074400
     33 C18         -6.9170    -0.7270    -0.0650 c3         1 5SV      -0.073400
     34 C19         -8.3350    -0.5570    -0.5950 c3         1 5SV      -0.075400
     35 C20         -9.3910    -1.3060     0.2100 c3         1 5SV      -0.073400
     36 C21        -10.8110    -0.9750    -0.2340 c3         1 5SV      -0.075400
     37 C22        -11.8910    -1.7110     0.5480 c3         1 5SV      -0.073400
     38 C23        -13.3000    -1.3130     0.1250 c3         1 5SV      -0.074400
     39 C24        -14.3970    -2.0400     0.8920 c3         1 5SV      -0.073400
     40 H1           0.6230    -1.9430     2.2910 h5         1 5SV       0.033100
     41 H2           5.3280     0.3450    -1.4040 h5         1 5SV       0.124800
     42 H3           3.8280     2.4250    -2.4400 h1         1 5SV       0.019200
     43 H4           3.4590     4.1420    -2.2710 h1         1 5SV       0.019200
     44 H5           2.8680     2.0190    -0.1670 hc         1 5SV       0.045200
     45 H6           2.4050     3.7060    -0.0630 hc         1 5SV       0.045200
     46 H7           0.9300     3.4470    -2.0480 hc         1 5SV       0.032700
     47 H8           1.4710     1.7910    -2.2540 hc         1 5SV       0.032700
     48 H9           0.5350     1.1820    -0.0400 hc         1 5SV       0.038200
     49 H10         -0.0210     2.8230     0.2000 hc         1 5SV       0.038200
     50 H11         -1.5570     2.6500    -1.7070 hc         1 5SV       0.029700
     51 H12         -0.8850     1.0990    -2.1660 hc         1 5SV       0.029700
     52 H13         -1.7270     0.0510    -0.1130 hc         1 5SV       0.043700
     53 H14         -2.2960     1.5900     0.4970 hc         1 5SV       0.043700
     54 H15         -3.8880     1.7870    -1.4000 hc         1 5SV       0.031700
     55 H16         -3.3260     0.2670    -2.0560 hc         1 5SV       0.031700
     56 H18          7.5630     1.1300    -0.5420 h1         1 5SV       0.028700
     57 H19          8.7450     1.9980     0.4310 h1         1 5SV       0.028700
     58 H20          7.0920     2.3840     2.2090 h1         1 5SV       0.100700
     59 H21          8.4950     0.0510     1.8130 h1         1 5SV       0.050700
     60 H22          7.2230    -0.6450     3.7690 ho         1 5SV       0.509000
     61 H23          6.8210    -0.9010     0.3610 h1         1 5SV       0.065700
     62 H24          7.0270    -2.5510     1.8190 ho         1 5SV       0.505000
     63 H25          4.6500    -0.1260     2.3460 h2         1 5SV       0.106700
     64 H26          1.0170    -1.3100    -2.9030 hn         1 5SV       0.499000
     65 H27         -0.3670    -1.9230    -2.0780 hn         1 5SV       0.499000
     66 H28         -4.1420    -0.9450    -0.0590 hc         1 5SV       0.038700
     67 H29         -4.5810     0.5630     0.7130 hc         1 5SV       0.038700
     68 H30         -6.2310     1.0400    -1.0750 hc         1 5SV       0.034700
     69 H31         -5.8110    -0.4470    -1.8930 hc         1 5SV       0.034700
     70 H32         -6.6590    -1.7910    -0.0190 hc         1 5SV       0.037200
     71 H33         -6.8770    -0.3620     0.9670 hc         1 5SV       0.037200
     72 H34         -8.5810     0.5110    -0.6010 hc         1 5SV       0.035700
     73 H35         -8.3800    -0.8800    -1.6410 hc         1 5SV       0.035700
     74 H36         -9.2210    -2.3850     0.1280 hc         1 5SV       0.037200
     75 H37         -9.2800    -1.0610     1.2720 hc         1 5SV       0.037200
     76 H38        -10.9680     0.1050    -0.1360 hc         1 5SV       0.036700
     77 H39        -10.9200    -1.1990    -1.3010 hc         1 5SV       0.036700
     78 H40        -11.7630    -2.7920     0.4210 hc         1 5SV       0.037200
     79 H41        -11.7650    -1.5140     1.6180 hc         1 5SV       0.037200
     80 H42        -13.4210    -0.2320     0.2560 hc         1 5SV       0.036700
     81 H43        -14.2850    -3.1210     0.7530 hc         1 5SV       0.036700
     82 H44        -14.2730    -1.8590     1.9660 hc         1 5SV       0.036700
     83 C25        -15.7990    -1.6190     0.4700 c3         1 5SV      -0.075400
     84 C26        -16.9040    -2.3410     1.2300 c3         1 5SV      -0.075400
     85 C27        -18.3050    -1.9150     0.8080 c3         1 5SV      -0.074400
     86 C28        -19.4010    -2.6440     1.5720 c3         1 5SV      -0.088100
     87 H45        -13.4220    -1.5020    -0.9480 hc         1 5SV       0.036700
     88 H46        -15.9090    -0.5370     0.6120 hc         1 5SV       0.036700
     89 H47        -15.9220    -1.7960    -0.6040 hc         1 5SV       0.036700
     90 H48        -16.7960    -3.4230     1.0880 hc         1 5SV       0.036700
     91 H49        -16.7820    -2.1660     2.3050 hc         1 5SV       0.036700
     92 H50        -18.4120    -0.8360     0.9530 hc         1 5SV       0.036200
     93 H51        -18.4260    -2.0900    -0.2650 hc         1 5SV       0.036200
     94 H52        -19.3230    -2.4610     2.6460 hc         1 5SV       0.030367
     95 H53        -20.3940    -2.3240     1.2550 hc         1 5SV       0.030367
     96 H54        -19.3370    -3.7240     1.4190 hc         1 5SV       0.030367
@<TRIPOS>BOND
     1     1     5 ar  
     2     1     6 ar  
     3     1    40 1   
     4     2     4 ar  
     5     2     6 ar  
     6     2    27 1   
     7     3     4 ar  
     8     3     5 ar  
     9     3    29 1   
    10     4    28 1   
    11     7    27 1   
    12     7    28 2   
    13     7    41 1   
    14     8     9 1   
    15     8    30 1   
    16     8    42 1   
    17     8    43 1   
    18     9    10 1   
    19     9    44 1   
    20     9    45 1   
    21    10    11 1   
    22    10    46 1   
    23    10    47 1   
    24    11    12 1   
    25    11    48 1   
    26    11    49 1   
    27    12    13 1   
    28    12    50 1   
    29    12    51 1   
    30    13    14 1   
    31    13    52 1   
    32    13    53 1   
    33    14    31 1   
    34    14    54 1   
    35    14    55 1   
    36    15    16 1   
    37    16    17 1   
    38    16    18 1   
    39    16    30 1   
    40    18    19 1   
    41    19    20 1   
    42    19    56 1   
    43    19    57 1   
    44    20    21 1   
    45    20    22 1   
    46    20    58 1   
    47    21    26 1   
    48    22    23 1   
    49    22    24 1   
    50    22    59 1   
    51    23    60 1   
    52    24    25 1   
    53    24    26 1   
    54    24    61 1   
    55    25    62 1   
    56    26    27 1   
    57    26    63 1   
    58    29    64 1   
    59    29    65 1   
    60    31    32 1   
    61    31    66 1   
    62    31    67 1   
    63    32    33 1   
    64    32    68 1   
    65    32    69 1   
    66    33    34 1   
    67    33    70 1   
    68    33    71 1   
    69    34    35 1   
    70    34    72 1   
    71    34    73 1   
    72    35    36 1   
    73    35    74 1   
    74    35    75 1   
    75    36    37 1   
    76    36    76 1   
    77    36    77 1   
    78    37    38 1   
    79    37    78 1   
    80    37    79 1   
    81    38    39 1   
    82    38    80 1   
    83    38    87 1   
    84    39    81 1   
    85    39    82 1   
    86    39    83 1   
    87    83    84 1   
    88    83    88 1   
    89    83    89 1   
    90    84    85 1   
    91    84    90 1   
    92    84    91 1   
    93    85    86 1   
    94    85    92 1   
    95    85    93 1   
    96    86    94 1   
    97    86    95 1   
    98    86    96 1   
@<TRIPOS>SUBSTRUCTURE
     1 5SV         1 TEMP              0 ****  ****    0 ROOT
