@<TRIPOS>MOLECULE
5SW
   49    51     1     0     0
SMALL
No Charge or Current Charge


@<TRIPOS>ATOM
      1 N3          -3.9810     2.8840    -1.2780 nb         1 5SW      -0.680000
      2 C4          -4.5310     1.7570    -0.7670 ca         1 5SW       0.402900
      3 C5          -2.3650     0.7670    -0.3280 ca         1 5SW       0.064200
      4 C6          -3.7630     0.6830    -0.2900 ca         1 5SW      -0.234600
      5 C7          -4.4320    -0.5390     0.2380 c          1 5SW       0.573600
      6 C10         -1.5510    -0.3450     0.1650 cc         1 5SW      -0.123400
      7 C13          2.0570    -1.3780    -0.2960 ca         1 5SW       0.188100
      8 C17          0.6490    -1.3630    -0.3780 ca         1 5SW      -0.235500
      9 C20          1.9840     0.6450     1.0660 ca         1 5SW       0.188100
     10 C21          2.7310    -0.3660     0.4220 ca         1 5SW      -0.151300
     11 C24          1.9850     2.7050     2.4400 c3         1 5SW       0.148900
     12 C26          2.2090    -3.4350    -1.6660 c3         1 5SW       0.148900
     13 C18         -0.0920    -0.3500     0.2480 ca         1 5SW       0.044200
     14 C1          -1.7950     1.9310    -0.8720 ca         1 5SW      -0.177000
     15 N8          -3.5890    -1.5840     0.6780 n          1 5SW      -0.286000
     16 C2          -2.6330     2.9580    -1.3290 ca         1 5SW       0.358900
     17 C16          4.5990     1.6230    -0.9140 c3         1 5SW       0.152100
     18 C25          6.4000    -0.0270    -0.6540 c3         1 5SW       0.152100
     19 C9          -2.1960    -1.4700     0.6420 cd         1 5SW      -0.012400
     20 C12         -4.2200    -2.8160     1.2050 c3         1 5SW       0.081300
     21 C19          0.5770     0.6450     0.9740 ca         1 5SW      -0.235500
     22 O23          2.6590     1.6210     1.7770 os         1 5SW      -0.333100
     23 O22          2.8050    -2.3730    -0.9000 os         1 5SW      -0.333100
     24 N15          4.9400     0.2020    -0.6780 n3         1 5SW      -0.705600
     25 O11         -5.6530    -0.6290     0.2830 o          1 5SW      -0.543000
     26 H1          -5.6200     1.7250    -0.7500 h4         1 5SW       0.041100
     27 H2           0.1120    -2.1270    -0.9310 ha         1 5SW       0.122500
     28 H3           1.4170     3.3080     1.7200 h1         1 5SW       0.041367
     29 H4           1.2980     2.3270     3.2070 h1         1 5SW       0.041367
     30 H5           2.7140     3.3610     2.9310 h1         1 5SW       0.041367
     31 H6           2.9860    -4.1040    -2.0550 h1         1 5SW       0.041367
     32 H7           1.5280    -4.0300    -1.0440 h1         1 5SW       0.041367
     33 H8           1.6480    -3.0330    -2.5190 h1         1 5SW       0.041367
     34 H9          -0.7200     2.0500    -0.9530 ha         1 5SW       0.135000
     35 H10         -2.2130     3.8700    -1.7520 h4         1 5SW       0.020100
     36 H11          5.1040     1.9970    -1.8150 h1         1 5SW       0.028367
     37 H12          3.5190     1.7510    -1.0630 h1         1 5SW       0.028367
     38 H13          4.9070     2.2460    -0.0640 h1         1 5SW       0.028367
     39 H14          6.6240    -1.0990    -0.5640 h1         1 5SW       0.028367
     40 H15          6.8660     0.3380    -1.5790 h1         1 5SW       0.028367
     41 H16          6.8640     0.4940     0.1940 h1         1 5SW       0.028367
     42 H17         -1.6720    -2.3350     1.0390 h4         1 5SW       0.203000
     43 H18         -4.8740    -3.2530     0.4390 h1         1 5SW       0.054367
     44 H19         -3.4600    -3.5570     1.4820 h1         1 5SW       0.054367
     45 H20         -4.8180    -2.5750     2.0920 h1         1 5SW       0.054367
     46 H21         -0.0170     1.4080     1.4670 ha         1 5SW       0.122500
     47 H22          4.5840     0.1470     1.4190 h1         1 5SW       0.043700
     48 H23          4.5820    -1.4210     0.6440 h1         1 5SW       0.043700
     49 C14          4.2600    -0.3790     0.5100 c3         1 5SW       0.231100
@<TRIPOS>BOND
     1     1     2 ar  
     2     1    16 ar  
     3     2     4 ar  
     4     2    26 1   
     5     3     4 ar  
     6     3     6 1   
     7     3    14 ar  
     8     4     5 1   
     9     5    15 1   
    10     5    25 2   
    11     6    13 1   
    12     6    19 2   
    13     7     8 ar  
    14     7    10 ar  
    15     7    23 1   
    16     8    13 ar  
    17     8    27 1   
    18     9    10 ar  
    19     9    21 ar  
    20     9    22 1   
    21    10    49 1   
    22    11    22 1   
    23    11    28 1   
    24    11    29 1   
    25    11    30 1   
    26    12    23 1   
    27    12    31 1   
    28    12    32 1   
    29    12    33 1   
    30    13    21 ar  
    31    14    16 ar  
    32    14    34 1   
    33    15    19 1   
    34    15    20 1   
    35    16    35 1   
    36    17    24 1   
    37    17    36 1   
    38    17    37 1   
    39    17    38 1   
    40    18    24 1   
    41    18    39 1   
    42    18    40 1   
    43    18    41 1   
    44    19    42 1   
    45    20    43 1   
    46    20    44 1   
    47    20    45 1   
    48    21    46 1   
    49    24    49 1   
    50    47    49 1   
    51    48    49 1   
@<TRIPOS>SUBSTRUCTURE
     1 5SW         1 TEMP              0 ****  ****    0 ROOT
