@<TRIPOS>MOLECULE
5SW
   49    51     1     0     0
SMALL
abcg2


@<TRIPOS>ATOM
      1 N3          -3.9640     2.8500    -1.1800 nb         1 5SW      -0.680000
      2 C4          -4.4820     1.7230    -0.7420 ca         1 5SW       0.402900
      3 C5          -2.3200     0.7630    -0.2560 ca         1 5SW       0.064200
      4 C6          -3.7200     0.6470    -0.2740 ca         1 5SW      -0.234600
      5 C7          -4.3990    -0.5690     0.1640 c          1 5SW       0.573600
      6 C10         -1.5410    -0.3440     0.2240 cc         1 5SW      -0.123400
      7 C13          2.0610    -1.3000    -0.2600 ca         1 5SW       0.188100
      8 C17          0.6700    -1.3050    -0.3510 ca         1 5SW      -0.235500
      9 C20          1.9760     0.6760     1.0980 ca         1 5SW       0.188100
     10 C21          2.7380    -0.3090     0.4600 ca         1 5SW      -0.151300
     11 C24          1.9640     2.6810     2.3810 c3         1 5SW       0.148900
     12 C26          2.2180    -3.3190    -1.5050 c3         1 5SW       0.148900
     13 C18         -0.0650    -0.3180     0.2940 ca         1 5SW       0.044200
     14 C1          -1.7800     1.9630    -0.7420 ca         1 5SW      -0.177000
     15 N8          -3.5670    -1.5790     0.5930 n          1 5SW      -0.286000
     16 C2          -2.6280     2.9510    -1.1810 ca         1 5SW       0.358900
     17 C16          4.5790     1.5290    -0.9880 c3         1 5SW       0.152100
     18 C25          6.2730    -0.1270    -0.7160 c3         1 5SW       0.152100
     19 C9          -2.2100    -1.4540     0.6160 cd         1 5SW      -0.012400
     20 C12         -4.1880    -2.8180     1.0420 c3         1 5SW       0.081300
     21 C19          0.5830     0.6720     1.0230 ca         1 5SW      -0.235500
     22 O23          2.6630     1.6090     1.7820 os         1 5SW      -0.333100
     23 O22          2.8330    -2.2310    -0.8450 os         1 5SW      -0.333100
     24 N15          4.8510     0.1330    -0.7240 n3         1 5SW      -0.705600
     25 O11         -5.6120    -0.7160     0.1600 o          1 5SW      -0.543000
     26 H1          -5.5630     1.6440    -0.7520 h4         1 5SW       0.041100
     27 H2           0.1470    -2.0550    -0.9290 ha         1 5SW       0.122500
     28 H3           1.3900     3.2550     1.6490 h1         1 5SW       0.041367
     29 H4           1.2890     2.3440     3.1720 h1         1 5SW       0.041367
     30 H5           2.7170     3.3290     2.8210 h1         1 5SW       0.041367
     31 H6           3.0220    -3.9710    -1.8370 h1         1 5SW       0.041367
     32 H7           1.5590    -3.8830    -0.8390 h1         1 5SW       0.041367
     33 H8           1.6460    -3.0000    -2.3790 h1         1 5SW       0.041367
     34 H9          -0.7110     2.1200    -0.7810 ha         1 5SW       0.135000
     35 H10         -2.2190     3.8820    -1.5570 h4         1 5SW       0.020100
     36 H11          5.0440     1.8190    -1.9310 h1         1 5SW       0.028367
     37 H12          3.5070     1.7000    -1.0840 h1         1 5SW       0.028367
     38 H13          4.9590     2.2030    -0.2040 h1         1 5SW       0.028367
     39 H14          6.4580    -1.1930    -0.5750 h1         1 5SW       0.028367
     40 H15          6.7120     0.1630    -1.6720 h1         1 5SW       0.028367
     41 H16          6.8140     0.4140     0.0770 h1         1 5SW       0.028367
     42 H17         -1.6780    -2.3170     0.9920 h4         1 5SW       0.203000
     43 H18         -4.7250    -3.2960     0.2260 h1         1 5SW       0.054367
     44 H19         -3.4130    -3.4910     1.3930 h1         1 5SW       0.054367
     45 H20         -4.8830    -2.6260     1.8570 h1         1 5SW       0.054367
     46 H21         -0.0060     1.4170     1.5390 ha         1 5SW       0.122500
     47 H22          4.5980     0.2610     1.3770 h1         1 5SW       0.043700
     48 H23          4.5770    -1.3490     0.6900 h1         1 5SW       0.043700
     49 C14          4.2420    -0.3240     0.5170 c3         1 5SW       0.231100
@<TRIPOS>BOND
     1     1     2 ar  
     2     1    16 ar  
     3     2     4 ar  
     4     2    26 1   
     5     3     4 ar  
     6     3     6 1   
     7     3    14 ar  
     8     4     5 1   
     9     5    15 1   
    10     5    25 2   
    11     6    13 1   
    12     6    19 2   
    13     7     8 ar  
    14     7    10 ar  
    15     7    23 1   
    16     8    13 ar  
    17     8    27 1   
    18     9    10 ar  
    19     9    21 ar  
    20     9    22 1   
    21    10    49 1   
    22    11    22 1   
    23    11    28 1   
    24    11    29 1   
    25    11    30 1   
    26    12    23 1   
    27    12    31 1   
    28    12    32 1   
    29    12    33 1   
    30    13    21 ar  
    31    14    16 ar  
    32    14    34 1   
    33    15    19 1   
    34    15    20 1   
    35    16    35 1   
    36    17    24 1   
    37    17    36 1   
    38    17    37 1   
    39    17    38 1   
    40    18    24 1   
    41    18    39 1   
    42    18    40 1   
    43    18    41 1   
    44    19    42 1   
    45    20    43 1   
    46    20    44 1   
    47    20    45 1   
    48    21    46 1   
    49    24    49 1   
    50    47    49 1   
    51    48    49 1   
@<TRIPOS>SUBSTRUCTURE
     1 5SW         1 TEMP              0 ****  ****    0 ROOT
