@<TRIPOS>MOLECULE
5SY
   50    52     1     0     0
SMALL
bcc


@<TRIPOS>ATOM
      1 C4          -2.1000     1.7230    -0.4470 c6         1 5SY       0.088100
      2 C5          -3.5970     1.6070    -0.1600 c6         1 5SY       0.112100
      3 C6          -4.3820     2.7620    -0.7390 c3         1 5SY       0.145400
      4 O6          -5.7070     2.6890    -0.2710 oh         1 5SY      -0.585800
      5 O5          -4.1170     0.4080    -0.7120 os         1 5SY      -0.401600
      6 O4          -1.8120     1.7960    -1.8210 oh         1 5SY      -0.572800
      7 C3          -1.4020     0.4860     0.1200 c6         1 5SY       0.161100
      8 C2          -2.0430    -0.7750    -0.4370 c6         1 5SY       0.139100
      9 C1          -3.5600    -0.7670    -0.2070 c6         1 5SY       0.314900
     10 O1          -3.7850    -0.9380     1.1510 os         1 5SY      -0.429600
     11 C           -5.1400    -1.1510     1.4890 c3         1 5SY       0.121700
     12 O2          -1.4300    -1.8730     0.2280 os         1 5SY      -0.405900
     13 CAC         -1.4540    -3.0750    -0.3430 c          1 5SY       0.647100
     14 OAC         -2.0060    -3.3040    -1.3900 o          1 5SY      -0.540000
     15 CAM         -0.7250    -4.0840     0.4910 c3         1 5SY      -0.156100
     16 O3          -0.0400     0.4300    -0.2060 os         1 5SY      -0.397600
     17 CA           0.7670     1.3640     0.4530 c3         1 5SY       0.195600
     18 CB           2.1990     0.9560     0.2980 cc         1 5SY      -0.230400
     19 CC           2.6040    -0.1770    -0.3050 cd         1 5SY       0.001800
     20 CD           3.9990    -0.4940    -0.4170 ca         1 5SY      -0.153800
     21 CG           4.4820    -1.6510    -1.0370 ca         1 5SY      -0.068000
     22 CH           5.8400    -1.8870    -1.1110 ca         1 5SY      -0.156000
     23 CI           6.7370    -0.9670    -0.5660 ca         1 5SY      -0.082000
     24 CJ           6.2840     0.1840     0.0520 ca         1 5SY      -0.148000
     25 CE           4.9160     0.4070     0.1200 ca         1 5SY       0.165100
     26 OA           4.4880     1.5390     0.7300 os         1 5SY      -0.329200
     27 CF           3.1830     1.8710     0.8560 c          1 5SY       0.750800
     28 OB           2.9220     2.9020     1.4250 o          1 5SY      -0.571500
     29 H1          -1.7300     2.6110     0.0840 h1         1 5SY       0.041700
     30 H2          -3.7280     1.6210     0.9320 h1         1 5SY       0.066700
     31 H3          -3.8920     3.6930    -0.4240 h1         1 5SY       0.026700
     32 H4          -4.3370     2.7260    -1.8350 h1         1 5SY       0.026700
     33 H5          -6.2100     3.3930    -0.6900 ho         1 5SY       0.407000
     34 H6          -1.9030     2.7070    -2.1130 ho         1 5SY       0.404000
     35 H7          -1.5300     0.5080     1.2130 h1         1 5SY       0.065700
     36 H8          -1.8620    -0.8360    -1.5140 h1         1 5SY       0.104700
     37 H9          -4.0340    -1.5740    -0.7810 h2         1 5SY       0.091700
     38 H10         -5.1730    -1.4400     2.5380 h1         1 5SY       0.037367
     39 H11         -5.7500    -0.2540     1.3560 h1         1 5SY       0.037367
     40 H12         -5.5780    -1.9580     0.8910 h1         1 5SY       0.037367
     41 H13         -1.2810    -4.2770     1.4100 hc         1 5SY       0.070033
     42 H14         -0.6160    -5.0190    -0.0520 hc         1 5SY       0.070033
     43 H15          0.2590    -3.7160     0.7810 hc         1 5SY       0.070033
     44 H16          0.6320     2.3770     0.0500 h1         1 5SY       0.044700
     45 H17          0.5170     1.4210     1.5220 h1         1 5SY       0.044700
     46 H18          1.8820    -0.8690    -0.7190 ha         1 5SY       0.163000
     47 H19          3.7780    -2.3580    -1.4570 ha         1 5SY       0.140000
     48 H20          6.2100    -2.7830    -1.5900 ha         1 5SY       0.140000
     49 H21          7.8010    -1.1530    -0.6250 ha         1 5SY       0.139000
     50 H22          6.9750     0.9010     0.4760 ha         1 5SY       0.157000
@<TRIPOS>BOND
     1     1     2 1   
     2     1     6 1   
     3     1     7 1   
     4     1    29 1   
     5     2     3 1   
     6     2     5 1   
     7     2    30 1   
     8     3     4 1   
     9     3    31 1   
    10     3    32 1   
    11     4    33 1   
    12     5     9 1   
    13     6    34 1   
    14     7     8 1   
    15     7    16 1   
    16     7    35 1   
    17     8     9 1   
    18     8    12 1   
    19     8    36 1   
    20     9    10 1   
    21     9    37 1   
    22    10    11 1   
    23    11    38 1   
    24    11    39 1   
    25    11    40 1   
    26    12    13 1   
    27    13    14 2   
    28    13    15 1   
    29    15    41 1   
    30    15    42 1   
    31    15    43 1   
    32    16    17 1   
    33    17    18 1   
    34    17    44 1   
    35    17    45 1   
    36    18    19 2   
    37    18    27 1   
    38    19    20 1   
    39    19    46 1   
    40    20    21 ar  
    41    20    25 ar  
    42    21    22 ar  
    43    21    47 1   
    44    22    23 ar  
    45    22    48 1   
    46    23    24 ar  
    47    23    49 1   
    48    24    25 ar  
    49    24    50 1   
    50    25    26 1   
    51    26    27 1   
    52    27    28 2   
@<TRIPOS>SUBSTRUCTURE
     1 5SY         1 TEMP              0 ****  ****    0 ROOT
