@<TRIPOS>MOLECULE
5SY
   50    52     1     0     0
SMALL
No Charge or Current Charge


@<TRIPOS>ATOM
      1 C4          -2.0370     1.6580    -0.3130 c6         1 5SY       0.111300
      2 C5          -3.5900     1.6100    -0.1550 c6         1 5SY       0.135300
      3 C6          -4.2980     2.8690    -0.7570 c3         1 5SY       0.168600
      4 O6          -5.7260     2.8610    -0.5640 oh         1 5SY      -0.708000
      5 O5          -4.1340     0.4190    -0.7850 os         1 5SY      -0.448000
      6 O4          -1.6300     1.8210    -1.6900 oh         1 5SY      -0.695000
      7 C3          -1.4170     0.3480     0.2740 c6         1 5SY       0.184300
      8 C2          -2.0920    -0.9070    -0.3560 c6         1 5SY       0.162300
      9 C1          -3.6510    -0.8240    -0.2270 c6         1 5SY       0.361300
     10 O1          -4.0700    -0.9150     1.1530 os         1 5SY      -0.476000
     11 C           -5.4860    -1.0300     1.3820 c3         1 5SY       0.144900
     12 O2          -1.5580    -2.1240     0.2380 os         1 5SY      -0.429100
     13 CAC         -1.8420    -3.3500    -0.2960 c          1 5SY       0.598100
     14 OAC         -2.5010    -3.5260    -1.3110 o          1 5SY      -0.491000
     15 CAM         -1.1900    -4.4730     0.4970 c3         1 5SY      -0.156100
     16 O3           0.0130     0.3090     0.0240 os         1 5SY      -0.444000
     17 CA           0.8380     1.2390     0.7510 c3         1 5SY       0.218800
     18 CB           2.2870     0.9580     0.4280 cc         1 5SY      -0.230400
     19 CC           2.7700    -0.1840    -0.1800 cd         1 5SY      -0.048200
     20 CD           4.1980    -0.3390    -0.4290 ca         1 5SY      -0.153800
     21 CG           4.7160    -1.4900    -1.0500 ca         1 5SY      -0.050000
     22 CH           6.1010    -1.6010    -1.2740 ca         1 5SY      -0.138000
     23 CI           6.9660    -0.5660    -0.8790 ca         1 5SY      -0.064000
     24 CJ           6.4450     0.5830    -0.2580 ca         1 5SY      -0.130000
     25 CE           5.0630     0.6920    -0.0350 ca         1 5SY       0.165100
     26 OA           4.5640     1.8160     0.5740 os         1 5SY      -0.329200
     27 CF           3.2340     2.0300     0.8430 c          1 5SY       0.675300
     28 OB           2.8730     3.0590     1.3990 o          1 5SY      -0.496000
     29 H1          -1.6710     2.5090     0.2800 h1         1 5SY       0.041700
     30 H2          -3.8320     1.5890     0.9180 h1         1 5SY       0.066700
     31 H3          -3.8630     3.7620    -0.2880 h1         1 5SY       0.026700
     32 H4          -4.0680     2.9190    -1.8290 h1         1 5SY       0.026700
     33 H5          -6.0860     3.6370    -1.0530 ho         1 5SY       0.506000
     34 H6          -0.6830     1.5490    -1.7280 ho         1 5SY       0.503000
     35 H7          -1.5880     0.3220     1.3600 h1         1 5SY       0.065700
     36 H8          -1.8480    -0.9150    -1.4270 h1         1 5SY       0.104700
     37 H9          -4.0930    -1.6590    -0.7910 h2         1 5SY       0.091700
     38 H10         -5.6920    -1.1170     2.4560 h1         1 5SY       0.037367
     39 H11         -6.0180    -0.1470     1.0050 h1         1 5SY       0.037367
     40 H12         -5.8910    -1.9200     0.8830 h1         1 5SY       0.037367
     41 H13         -1.5270    -4.4110     1.5370 hc         1 5SY       0.070033
     42 H14         -1.3800    -5.4610     0.0630 hc         1 5SY       0.070033
     43 H15         -0.1180    -4.2650     0.5870 hc         1 5SY       0.070033
     44 H16          0.5920     2.2720     0.4720 h1         1 5SY       0.044700
     45 H17          0.6830     1.1280     1.8320 h1         1 5SY       0.044700
     46 H18          2.0840    -0.9770    -0.4720 ha         1 5SY       0.213000
     47 H19          4.0530    -2.2960    -1.3590 ha         1 5SY       0.122000
     48 H20          6.5020    -2.4910    -1.7550 ha         1 5SY       0.122000
     49 H21          8.0370    -0.6540    -1.0530 ha         1 5SY       0.121000
     50 H22          7.1090     1.3860     0.0510 ha         1 5SY       0.139000
@<TRIPOS>BOND
     1     1     2 1   
     2     1     6 1   
     3     1     7 1   
     4     1    29 1   
     5     2     3 1   
     6     2     5 1   
     7     2    30 1   
     8     3     4 1   
     9     3    31 1   
    10     3    32 1   
    11     4    33 1   
    12     5     9 1   
    13     6    34 1   
    14     7     8 1   
    15     7    16 1   
    16     7    35 1   
    17     8     9 1   
    18     8    12 1   
    19     8    36 1   
    20     9    10 1   
    21     9    37 1   
    22    10    11 1   
    23    11    38 1   
    24    11    39 1   
    25    11    40 1   
    26    12    13 1   
    27    13    14 2   
    28    13    15 1   
    29    15    41 1   
    30    15    42 1   
    31    15    43 1   
    32    16    17 1   
    33    17    18 1   
    34    17    44 1   
    35    17    45 1   
    36    18    19 2   
    37    18    27 1   
    38    19    20 1   
    39    19    46 1   
    40    20    21 ar  
    41    20    25 ar  
    42    21    22 ar  
    43    21    47 1   
    44    22    23 ar  
    45    22    48 1   
    46    23    24 ar  
    47    23    49 1   
    48    24    25 ar  
    49    24    50 1   
    50    25    26 1   
    51    26    27 1   
    52    27    28 2   
@<TRIPOS>SUBSTRUCTURE
     1 5SY         1 TEMP              0 ****  ****    0 ROOT
