@<TRIPOS>MOLECULE
5SZ
   44    48     1     0     0
SMALL
abcg2


@<TRIPOS>ATOM
      1 C20         -4.7720     3.9380    -1.9800 c3         1 5SZ      -0.135400
      2 C18         -3.8930     2.9520    -1.3020 cc         1 5SZ       0.279300
      3 C19         -3.9560     1.5360    -1.3760 cc         1 5SZ      -0.225000
      4 N6          -2.9160     3.3300    -0.5280 nd         1 5SZ      -0.350300
      5 O2          -2.3160     2.1920    -0.0760 os         1 5SZ      -0.072700
      6 C7          -2.9360     1.1250    -0.5840 cd         1 5SZ       0.235500
      7 C1          -2.4330    -0.1900    -0.2280 cd         1 5SZ      -0.153500
      8 C2          -3.1190    -1.3480    -0.7160 cd         1 5SZ      -0.132000
      9 C3          -2.6700    -2.5760    -0.3900 cc         1 5SZ       0.215000
     10 F1          -3.2680    -3.6840    -0.8030 f          1 5SZ      -0.134000
     11 C4          -1.3290    -0.3240     0.5530 cc         1 5SZ      -0.060000
     12 N1          -0.8910    -1.5860     0.8480 na         1 5SZ       0.031200
     13 C5          -1.5170    -2.7280     0.4170 cc         1 5SZ      -0.138000
     14 N2          -0.8830    -3.7880     0.8560 nd         1 5SZ      -0.057000
     15 N3           0.1650    -3.3430     1.5680 nd         1 5SZ      -0.345700
     16 C6           0.1750    -2.0400     1.5740 cc         1 5SZ       0.302800
     17 C8           1.1890    -1.1560     2.2160 c3         1 5SZ       0.096400
     18 C9           2.0770    -1.9070     3.1960 c3         1 5SZ      -0.094100
     19 N4           1.9830    -0.4830     1.1730 n          1 5SZ      -0.304000
     20 C10          2.6910    -1.2670     0.2950 cc         1 5SZ      -0.040400
     21 C11          3.4810    -0.7580    -0.6650 cd         1 5SZ      -0.362800
     22 C14          3.6010     0.6610    -0.7850 ca         1 5SZ       0.454800
     23 N5           4.3890     1.1710    -1.7430 nb         1 5SZ      -0.676000
     24 C15          4.4810     2.4820    -1.8350 ca         1 5SZ       0.378900
     25 C16          3.8070     3.3740    -0.9960 ca         1 5SZ      -0.192000
     26 C17          2.9950     2.8590    -0.0120 ca         1 5SZ      -0.004000
     27 C13          2.8810     1.4720     0.1070 ca         1 5SZ      -0.222600
     28 C12          2.0230     0.8960     1.1400 c          1 5SZ       0.577600
     29 O1           1.3690     1.5740     1.9200 o          1 5SZ      -0.558000
     30 H1          -5.8140     3.7720    -1.7090 hc         1 5SZ       0.058700
     31 H2          -4.5020     4.9570    -1.7110 hc         1 5SZ       0.058700
     32 H3          -4.6950     3.8350    -3.0630 hc         1 5SZ       0.058700
     33 H4          -4.6570     0.9420    -1.9390 ha         1 5SZ       0.155000
     34 H5          -3.9980    -1.2460    -1.3390 ha         1 5SZ       0.149000
     35 H6          -0.7800     0.5040     0.9750 h4         1 5SZ       0.187000
     36 H7           0.6710    -0.3680     2.7640 h1         1 5SZ       0.106700
     37 H8           1.4680    -2.3530     3.9810 hc         1 5SZ       0.059033
     38 H9           2.6470    -2.7020     2.7180 hc         1 5SZ       0.059033
     39 H10          2.7720    -1.2100     3.6590 hc         1 5SZ       0.059033
     40 H11          2.5690    -2.3340     0.4160 h4         1 5SZ       0.218000
     41 H12          4.0160    -1.4110    -1.3380 ha         1 5SZ       0.219000
     42 H13          5.1250     2.8650    -2.6190 h4         1 5SZ       0.022100
     43 H14          3.9280     4.4400    -1.1270 ha         1 5SZ       0.131000
     44 H15          2.4530     3.5100     0.6600 ha         1 5SZ       0.143000
@<TRIPOS>BOND
     1     1     2 1   
     2     1    30 1   
     3     1    31 1   
     4     1    32 1   
     5     2     3 1   
     6     2     4 2   
     7     3     6 2   
     8     3    33 1   
     9     4     5 1   
    10     5     6 1   
    11     6     7 1   
    12     7     8 1   
    13     7    11 2   
    14     8     9 2   
    15     8    34 1   
    16     9    10 1   
    17     9    13 1   
    18    11    12 1   
    19    11    35 1   
    20    12    13 1   
    21    12    16 1   
    22    13    14 2   
    23    14    15 1   
    24    15    16 2   
    25    16    17 1   
    26    17    18 1   
    27    17    19 1   
    28    17    36 1   
    29    18    37 1   
    30    18    38 1   
    31    18    39 1   
    32    19    20 1   
    33    19    28 1   
    34    20    21 2   
    35    20    40 1   
    36    21    22 1   
    37    21    41 1   
    38    22    23 ar  
    39    22    27 ar  
    40    23    24 ar  
    41    24    25 ar  
    42    24    42 1   
    43    25    26 ar  
    44    25    43 1   
    45    26    27 ar  
    46    26    44 1   
    47    27    28 1   
    48    28    29 2   
@<TRIPOS>SUBSTRUCTURE
     1 5SZ         1 TEMP              0 ****  ****    0 ROOT
