@<TRIPOS>MOLECULE
5SZ
   44    48     1     0     0
SMALL
No Charge or Current Charge


@<TRIPOS>ATOM
      1 C20         -4.8430     3.7820    -2.0330 c3         1 5SZ      -0.135400
      2 C18         -3.8370     2.9380    -1.3070 cc         1 5SZ       0.279300
      3 C19         -3.9010     1.5350    -1.2940 cc         1 5SZ      -0.225000
      4 N6          -2.8150     3.4340    -0.6260 nd         1 5SZ      -0.350300
      5 O2          -2.1430     2.2640    -0.1160 os         1 5SZ      -0.072700
      6 C7          -2.8340     1.1610    -0.5460 cd         1 5SZ       0.235500
      7 C1          -2.4550    -0.1980    -0.2330 cd         1 5SZ      -0.153500
      8 C2          -3.2270    -1.3300    -0.7220 cd         1 5SZ      -0.132000
      9 C3          -2.8170    -2.6020    -0.4020 cc         1 5SZ       0.215000
     10 F1          -3.4830    -3.6860    -0.8300 f          1 5SZ      -0.134000
     11 C4          -1.3090    -0.3430     0.5590 cc         1 5SZ      -0.060000
     12 N1          -0.9700    -1.6730     0.8410 na         1 5SZ       0.031200
     13 C5          -1.6520    -2.7560     0.3970 cc         1 5SZ      -0.138000
     14 N2          -1.0270    -3.8300     0.8430 nd         1 5SZ      -0.057000
     15 N3           0.0830    -3.4050     1.5720 nd         1 5SZ      -0.345700
     16 C6           0.1160    -2.0730     1.5700 cc         1 5SZ       0.302800
     17 C8           1.1690    -1.1820     2.2090 c3         1 5SZ       0.096400
     18 C9           2.0430    -1.9070     3.2590 c3         1 5SZ      -0.094100
     19 N4           2.0130    -0.5110     1.1720 n          1 5SZ      -0.304000
     20 C10          2.6730    -1.2860     0.2090 cc         1 5SZ      -0.040400
     21 C11          3.4450    -0.6860    -0.7570 cd         1 5SZ      -0.362800
     22 C14          3.6080     0.7510    -0.8110 ca         1 5SZ       0.454800
     23 N5           4.3820     1.2340    -1.8020 nb         1 5SZ      -0.676000
     24 C15          4.5480     2.5740    -1.8700 ca         1 5SZ       0.378900
     25 C16          3.9540     3.4610    -0.9580 ca         1 5SZ      -0.192000
     26 C17          3.1500     2.9480     0.0720 ca         1 5SZ      -0.004000
     27 C13          2.9760     1.5530     0.1410 ca         1 5SZ      -0.222600
     28 C12          2.1370     0.9070     1.1990 c          1 5SZ       0.577600
     29 O1           1.5750     1.5900     2.0450 o          1 5SZ      -0.558000
     30 H1          -5.8510     3.6040    -1.6410 hc         1 5SZ       0.058700
     31 H2          -4.6200     4.8500    -1.9240 hc         1 5SZ       0.058700
     32 H3          -4.8470     3.5440    -3.1030 hc         1 5SZ       0.058700
     33 H4          -4.6480     0.9240    -1.7830 ha         1 5SZ       0.155000
     34 H5          -4.1120    -1.2030    -1.3330 ha         1 5SZ       0.149000
     35 H6          -0.6940     0.4540     0.9560 h4         1 5SZ       0.187000
     36 H7           0.6020    -0.4260     2.7670 h1         1 5SZ       0.106700
     37 H8           1.4170    -2.3470     4.0460 hc         1 5SZ       0.059033
     38 H9           2.6320    -2.7100     2.8000 hc         1 5SZ       0.059033
     39 H10          2.7370    -1.2020     3.7320 hc         1 5SZ       0.059033
     40 H11          2.5130    -2.3580     0.3120 h4         1 5SZ       0.218000
     41 H12          3.9490    -1.2990    -1.4970 ha         1 5SZ       0.219000
     42 H13          5.1770     2.9460    -2.6780 h4         1 5SZ       0.022100
     43 H14          4.1180     4.5300    -1.0550 ha         1 5SZ       0.131000
     44 H15          2.6770     3.6160     0.7900 ha         1 5SZ       0.143000
@<TRIPOS>BOND
     1     1     2 1   
     2     1    30 1   
     3     1    31 1   
     4     1    32 1   
     5     2     3 1   
     6     2     4 2   
     7     3     6 2   
     8     3    33 1   
     9     4     5 1   
    10     5     6 1   
    11     6     7 1   
    12     7     8 1   
    13     7    11 2   
    14     8     9 2   
    15     8    34 1   
    16     9    10 1   
    17     9    13 1   
    18    11    12 1   
    19    11    35 1   
    20    12    13 1   
    21    12    16 1   
    22    13    14 2   
    23    14    15 1   
    24    15    16 2   
    25    16    17 1   
    26    17    18 1   
    27    17    19 1   
    28    17    36 1   
    29    18    37 1   
    30    18    38 1   
    31    18    39 1   
    32    19    20 1   
    33    19    28 1   
    34    20    21 2   
    35    20    40 1   
    36    21    22 1   
    37    21    41 1   
    38    22    23 ar  
    39    22    27 ar  
    40    23    24 ar  
    41    24    25 ar  
    42    24    42 1   
    43    25    26 ar  
    44    25    43 1   
    45    26    27 ar  
    46    26    44 1   
    47    27    28 1   
    48    28    29 2   
@<TRIPOS>SUBSTRUCTURE
     1 5SZ         1 TEMP              0 ****  ****    0 ROOT
