@<TRIPOS>MOLECULE
5T0
   55    57     1     0     0
SMALL
No Charge or Current Charge


@<TRIPOS>ATOM
      1 C14          4.9840     1.2500     0.6340 ca         1 5T0      -0.068000
      2 C13          3.6100     0.9550     0.5770 ca         1 5T0      -0.166500
      3 C15          5.8810     0.6190    -0.2480 ca         1 5T0      -0.127300
      4 C17          4.0140    -0.6010    -1.2370 ca         1 5T0      -0.166500
      5 C16          5.3880    -0.3080    -1.1840 ca         1 5T0      -0.068000
      6 C8          -0.1280    -1.9250    -0.1760 c6         1 5T0      -0.079400
      7 C10          0.7500     0.8570    -0.5990 c6         1 5T0       0.200800
      8 C9           1.2220    -1.5770    -0.8510 c6         1 5T0       0.200800
      9 N1           1.7240    -0.2510    -0.3960 nh         1 5T0      -0.789400
     10 C12          3.1110     0.0290    -0.3570 ca         1 5T0       0.298000
     11 C11         -0.6070     0.5460     0.0790 c6         1 5T0      -0.079400
     12 C1          -7.5420     2.0230    -0.2780 c5         1 5T0      -0.094400
     13 C2          -8.4320     0.7630    -0.1530 c5         1 5T0      -0.094400
     14 C3          -7.5620    -0.1460     0.7530 c5         1 5T0       0.103000
     15 C4          -5.0780    -0.6170     0.5920 c          1 5T0       0.604100
     16 C6          -2.5360    -1.1790     0.2950 c3         1 5T0      -0.060400
     17 C7          -1.1880    -0.8140    -0.4000 c6         1 5T0      -0.063700
     18 O           -5.2010    -1.6040     1.3080 o          1 5T0      -0.609100
     19 N           -6.2010     0.1740     0.2740 n          1 5T0      -0.422800
     20 C           -6.1480     1.4010    -0.5520 c5         1 5T0       0.103000
     21 C18          7.3680     0.9400    -0.1940 c3         1 5T0       0.211100
     22 N2           8.0770    -0.0590     0.6220 n7         1 5T0      -0.860400
     23 C19          9.5250     0.1750     0.7800 c3         1 5T0       0.144100
     24 H1           5.3490     1.9680     1.3660 ha         1 5T0       0.114500
     25 H2           2.9310     1.4420     1.2710 ha         1 5T0       0.112000
     26 H3           3.6550    -1.3120    -1.9750 ha         1 5T0       0.112000
     27 H4           6.0710    -0.8030    -1.8710 ha         1 5T0       0.114500
     28 H5          -0.4930    -2.8830    -0.5710 hc         1 5T0       0.049200
     29 H6           0.0350    -2.0740     0.9000 hc         1 5T0       0.049200
     30 H7           1.1390     1.8010    -0.1900 h1         1 5T0       0.036200
     31 H8           0.5880     1.0140    -1.6750 h1         1 5T0       0.036200
     32 H9           1.9470    -2.3660    -0.6020 h1         1 5T0       0.036200
     33 H10          1.0940    -1.5760    -1.9430 h1         1 5T0       0.036200
     34 H11         -0.4740     0.5330     1.1700 hc         1 5T0       0.049200
     35 H12         -1.3050     1.3640    -0.1420 hc         1 5T0       0.049200
     36 H14         -9.4140     0.9740     0.2860 hc         1 5T0       0.053950
     37 H15         -7.6700     0.1170     1.8130 h1         1 5T0       0.049450
     38 H18         -2.3870    -1.2500     1.3800 hc         1 5T0       0.057700
     39 H19         -2.8450    -2.1790    -0.0350 hc         1 5T0       0.057700
     40 H20         -1.3970    -0.7470    -1.4770 hc         1 5T0       0.041700
     41 H21         -6.0230     1.1470    -1.6130 h1         1 5T0       0.049450
     42 H22          7.7700     0.9560    -1.2170 h1         1 5T0       0.032700
     43 H23          7.5050     1.9470     0.2260 h1         1 5T0       0.032700
     44 H24          7.6470    -0.0570     1.5550 hn         1 5T0       0.411000
     45 H26          9.7150     1.1410     1.2680 h1         1 5T0       0.028367
     46 H27          9.9780    -0.6130     1.3960 h1         1 5T0       0.028367
     47 H28         10.0290     0.1770    -0.1960 h1         1 5T0       0.028367
     48 H29         -7.5400     2.6000     0.6550 hc         1 5T0       0.053950
     49 H30         -8.6020     0.2990    -1.1320 hc         1 5T0       0.053950
     50 H31         -7.8120    -1.2080     0.6280 h1         1 5T0       0.049450
     51 H32         -5.3390     2.0810    -0.2540 h1         1 5T0       0.049450
     52 C5          -3.7080    -0.2020     0.0160 c3         1 5T0      -0.153400
     53 H13         -7.8650     2.6970    -1.0800 hc         1 5T0       0.053950
     54 H16         -3.8310    -0.0170    -1.0570 hc         1 5T0       0.054200
     55 H17         -3.4940     0.8050     0.3870 hc         1 5T0       0.054200
@<TRIPOS>BOND
     1     1     2 ar  
     2     1     3 ar  
     3     1    24 1   
     4     2    10 ar  
     5     2    25 1   
     6     3     5 ar  
     7     3    21 1   
     8     4     5 ar  
     9     4    10 ar  
    10     4    26 1   
    11     5    27 1   
    12     6     8 1   
    13     6    17 1   
    14     6    28 1   
    15     6    29 1   
    16     7     9 1   
    17     7    11 1   
    18     7    30 1   
    19     7    31 1   
    20     8     9 1   
    21     8    32 1   
    22     8    33 1   
    23     9    10 1   
    24    11    17 1   
    25    11    34 1   
    26    11    35 1   
    27    12    13 1   
    28    12    20 1   
    29    12    48 1   
    30    12    53 1   
    31    13    14 1   
    32    13    36 1   
    33    13    49 1   
    34    14    19 1   
    35    14    37 1   
    36    14    50 1   
    37    15    18 2   
    38    15    19 1   
    39    15    52 1   
    40    16    17 1   
    41    16    38 1   
    42    16    39 1   
    43    16    52 1   
    44    17    40 1   
    45    19    20 1   
    46    20    41 1   
    47    20    51 1   
    48    21    22 1   
    49    21    42 1   
    50    21    43 1   
    51    22    23 1   
    52    22    44 1   
    53    23    45 1   
    54    23    46 1   
    55    23    47 1   
    56    52    54 1   
    57    52    55 1   
@<TRIPOS>SUBSTRUCTURE
     1 5T0         1 TEMP              0 ****  ****    0 ROOT
