@<TRIPOS>MOLECULE
5T0
   55    57     1     0     0
SMALL
bcc


@<TRIPOS>ATOM
      1 C14          4.8440     1.4430     0.6330 ca         1 5T0      -0.086000
      2 C13          3.4970     1.1290     0.6620 ca         1 5T0      -0.184500
      3 C15          5.7580     0.6820    -0.0920 ca         1 5T0      -0.127300
      4 C17          3.9120    -0.7340    -0.7760 ca         1 5T0      -0.184500
      5 C16          5.2620    -0.4150    -0.7860 ca         1 5T0      -0.086000
      6 C8          -0.1820    -1.9310    -0.0610 c6         1 5T0      -0.079400
      7 C10          0.6880     0.7990    -0.1960 c6         1 5T0       0.200800
      8 C9           1.1960    -1.5360    -0.5710 c6         1 5T0       0.200800
      9 N1           1.6340    -0.2890     0.0250 nh         1 5T0      -0.651000
     10 C12          2.9910     0.0290    -0.0460 ca         1 5T0       0.159600
     11 C11         -0.6930     0.4550     0.3350 c6         1 5T0      -0.079400
     12 C1          -7.3110     2.0570    -0.4170 c5         1 5T0      -0.094400
     13 C2          -8.2540     0.8630    -0.3240 c5         1 5T0      -0.094400
     14 C3          -7.4470    -0.1610     0.4660 c5         1 5T0       0.103000
     15 C4          -5.0510    -0.6670     0.4390 c          1 5T0       0.671100
     16 C6          -2.5840    -1.2550     0.2670 c3         1 5T0      -0.060400
     17 C7          -1.2200    -0.8370    -0.2800 c6         1 5T0      -0.063700
     18 O           -5.2380    -1.6980     1.0780 o          1 5T0      -0.609100
     19 N           -6.0660     0.1480     0.1090 n          1 5T0      -0.489800
     20 C           -5.9480     1.4060    -0.6210 c5         1 5T0       0.103000
     21 C18          7.2190     1.0400    -0.1280 c3         1 5T0       0.211100
     22 N2           8.0610    -0.1100     0.1430 n7         1 5T0      -0.805200
     23 C19          9.4720     0.2150     0.0950 c3         1 5T0       0.144100
     24 H1           5.1930     2.2980     1.2010 ha         1 5T0       0.132500
     25 H2           2.8370     1.7350     1.2700 ha         1 5T0       0.130000
     26 H3           3.5860    -1.5870    -1.3560 ha         1 5T0       0.130000
     27 H4           5.9410    -1.0340    -1.3610 ha         1 5T0       0.132500
     28 H5          -0.4890    -2.8530    -0.5610 hc         1 5T0       0.049200
     29 H6          -0.1140    -2.1550     1.0090 hc         1 5T0       0.049200
     30 H7           1.0440     1.7030     0.2930 h1         1 5T0       0.036200
     31 H8           0.6170     1.0280    -1.2710 h1         1 5T0       0.036200
     32 H9           1.9010    -2.3250    -0.3080 h1         1 5T0       0.036200
     33 H10          1.1780    -1.4740    -1.6720 h1         1 5T0       0.036200
     34 H11         -0.6470     0.3490     1.4250 hc         1 5T0       0.049200
     35 H12         -1.3580     1.2960     0.1240 hc         1 5T0       0.049200
     36 H14         -9.2030     1.1000     0.1550 hc         1 5T0       0.053950
     37 H15         -7.6000    -0.0470     1.5430 h1         1 5T0       0.049450
     38 H18         -2.5020    -1.4250     1.3450 hc         1 5T0       0.057700
     39 H19         -2.8580    -2.2160    -0.1760 hc         1 5T0       0.057700
     40 H20         -1.3210    -0.6790    -1.3630 hc         1 5T0       0.041700
     41 H21         -5.7510     1.2260    -1.6820 h1         1 5T0       0.049450
     42 H22          7.4830     1.4140    -1.1230 h1         1 5T0       0.032700
     43 H23          7.4020     1.8770     0.5650 h1         1 5T0       0.032700
     44 H24          7.8340    -0.4730     1.0600 hn         1 5T0       0.355800
     45 H26          9.7690     1.0380     0.7600 h1         1 5T0       0.028367
     46 H27         10.0620    -0.6610     0.3630 h1         1 5T0       0.028367
     47 H28          9.7500     0.5030    -0.9210 h1         1 5T0       0.028367
     48 H29         -7.3190     2.6210     0.5180 hc         1 5T0       0.053950
     49 H30         -8.4730     0.4770    -1.3220 hc         1 5T0       0.053950
     50 H31         -7.7000    -1.1880     0.2030 h1         1 5T0       0.049450
     51 H32         -5.1350     2.0210    -0.2320 h1         1 5T0       0.049450
     52 C5          -3.6740    -0.2340    -0.0180 c3         1 5T0      -0.153400
     53 H13         -7.5600     2.7480    -1.2220 hc         1 5T0       0.053950
     54 H16         -3.7050    -0.0100    -1.0910 hc         1 5T0       0.054200
     55 H17         -3.4410     0.7200     0.4660 hc         1 5T0       0.054200
@<TRIPOS>BOND
     1     1     2 ar  
     2     1     3 ar  
     3     1    24 1   
     4     2    10 ar  
     5     2    25 1   
     6     3     5 ar  
     7     3    21 1   
     8     4     5 ar  
     9     4    10 ar  
    10     4    26 1   
    11     5    27 1   
    12     6     8 1   
    13     6    17 1   
    14     6    28 1   
    15     6    29 1   
    16     7     9 1   
    17     7    11 1   
    18     7    30 1   
    19     7    31 1   
    20     8     9 1   
    21     8    32 1   
    22     8    33 1   
    23     9    10 1   
    24    11    17 1   
    25    11    34 1   
    26    11    35 1   
    27    12    13 1   
    28    12    20 1   
    29    12    48 1   
    30    12    53 1   
    31    13    14 1   
    32    13    36 1   
    33    13    49 1   
    34    14    19 1   
    35    14    37 1   
    36    14    50 1   
    37    15    18 2   
    38    15    19 1   
    39    15    52 1   
    40    16    17 1   
    41    16    38 1   
    42    16    39 1   
    43    16    52 1   
    44    17    40 1   
    45    19    20 1   
    46    20    41 1   
    47    20    51 1   
    48    21    22 1   
    49    21    42 1   
    50    21    43 1   
    51    22    23 1   
    52    22    44 1   
    53    23    45 1   
    54    23    46 1   
    55    23    47 1   
    56    52    54 1   
    57    52    55 1   
@<TRIPOS>SUBSTRUCTURE
     1 5T0         1 TEMP              0 ****  ****    0 ROOT
