@<TRIPOS>MOLECULE
5T1
   56    60     1     0     0
SMALL
No Charge or Current Charge


@<TRIPOS>ATOM
      1 C23         -7.7860     4.3710    -0.7210 c3         1 5T1       0.144900
      2 O3          -7.1270     3.1610    -0.3140 os         1 5T1      -0.441000
      3 C22         -6.4210     3.2560     0.9400 c3         1 5T1       0.157600
      4 C21         -5.7590     1.8950     1.2480 c3         1 5T1       0.161600
      5 O2          -4.6660     1.6940     0.3280 os         1 5T1      -0.325100
      6 C19         -3.8850     0.5520     0.3610 ca         1 5T1       0.073100
      7 C20         -2.8390     0.4290    -0.5660 ca         1 5T1      -0.056000
      8 C15         -2.0390    -0.7340    -0.5350 ca         1 5T1      -0.182600
      9 C16         -0.9070    -0.9330    -1.4860 c          1 5T1       0.575600
     10 O1          -0.6400    -0.0830    -2.3260 o          1 5T1      -0.568000
     11 C18         -4.0860    -0.5040     1.2850 ca         1 5T1       0.300900
     12 N7          -3.3170    -1.6190     1.3140 nb         1 5T1      -0.647000
     13 C14         -2.3150    -1.7230     0.4170 ca         1 5T1       0.415800
     14 C13         -1.5230    -2.9320     0.4850 cc         1 5T1      -0.351800
     15 C12         -0.4800    -3.0950    -0.4020 cd         1 5T1      -0.048400
     16 N6          -0.1590    -2.1320    -1.3640 n          1 5T1      -0.299000
     17 C11          0.9930    -2.3700    -2.2880 c3         1 5T1       0.100400
     18 C17          0.6610    -3.4610    -3.3330 c3         1 5T1      -0.094100
     19 C10          2.2730    -2.6350    -1.5120 cc         1 5T1       0.290800
     20 N1           2.9780    -1.7400    -0.7550 na         1 5T1       0.048200
     21 C5           2.6400    -0.3920    -0.5740 cc         1 5T1      -0.121000
     22 N5           2.9170    -3.7960    -1.3960 nd         1 5T1      -0.351700
     23 N4           4.0240    -3.6170    -0.5660 nd         1 5T1      -0.066000
     24 C4           4.0370    -2.3540    -0.1790 cc         1 5T1      -0.145000
     25 C3           4.9170    -1.6330     0.6700 cc         1 5T1       0.213000
     26 F1           5.9660    -2.2560     1.2310 f          1 5T1      -0.141000
     27 C2           4.6610    -0.3030     0.9000 cd         1 5T1      -0.143000
     28 C1           3.5070     0.3100     0.2690 cd         1 5T1       0.020000
     29 C6           3.1970     1.7040     0.4920 cd         1 5T1      -0.172000
     30 C8           3.9360     2.5380     1.2840 cc         1 5T1      -0.144000
     31 C7           2.1190     2.4510    -0.0360 cd         1 5T1       0.262900
     32 N2           2.1360     3.7050     0.3770 nc         1 5T1      -0.517800
     33 N3           3.2570     3.7510     1.1880 na         1 5T1       0.138800
     34 C9           3.6270     5.0070     1.8530 c3         1 5T1       0.070900
     35 H1          -8.5330     4.6780     0.0240 h1         1 5T1       0.030700
     36 H2          -7.0620     5.1870    -0.8450 h1         1 5T1       0.030700
     37 H3          -8.3000     4.2220    -1.6790 h1         1 5T1       0.030700
     38 H4          -5.6500     4.0380     0.9000 h1         1 5T1       0.035200
     39 H5          -7.1170     3.5040     1.7520 h1         1 5T1       0.035200
     40 H6          -5.3900     1.9060     2.2810 h1         1 5T1       0.045700
     41 H7          -6.5060     1.0960     1.1550 h1         1 5T1       0.045700
     42 H8          -2.6570     1.2210    -1.2890 ha         1 5T1       0.156000
     43 H9          -4.8810    -0.4650     2.0280 h4         1 5T1       0.023100
     44 H10         -1.7450    -3.7000     1.2200 ha         1 5T1       0.217000
     45 H11          0.1590    -3.9760    -0.4190 h4         1 5T1       0.219000
     46 H12          1.1940    -1.4590    -2.8660 h1         1 5T1       0.104700
     47 H13          1.4900    -3.5840    -4.0390 hc         1 5T1       0.057700
     48 H14          0.4720    -4.4280    -2.8520 hc         1 5T1       0.057700
     49 H15         -0.2330    -3.1830    -3.9030 hc         1 5T1       0.057700
     50 H16          1.7690    -0.0010    -1.0800 h4         1 5T1       0.173000
     51 H17          5.3220     0.2560     1.5490 ha         1 5T1       0.139000
     52 H18          4.8310     2.4030     1.8780 h4         1 5T1       0.156000
     53 H19          1.3280     2.1280    -0.7000 h4         1 5T1       0.049100
     54 H20          3.8120     5.7810     1.0980 h1         1 5T1       0.059700
     55 H21          2.8120     5.3280     2.5120 h1         1 5T1       0.059700
     56 H22          4.5360     4.8580     2.4480 h1         1 5T1       0.059700
@<TRIPOS>BOND
     1     1     2 1   
     2     1    35 1   
     3     1    36 1   
     4     1    37 1   
     5     2     3 1   
     6     3     4 1   
     7     3    38 1   
     8     3    39 1   
     9     4     5 1   
    10     4    40 1   
    11     4    41 1   
    12     5     6 1   
    13     6     7 ar  
    14     6    11 ar  
    15     7     8 ar  
    16     7    42 1   
    17     8     9 1   
    18     8    13 ar  
    19     9    10 2   
    20     9    16 1   
    21    11    12 ar  
    22    11    43 1   
    23    12    13 ar  
    24    13    14 1   
    25    14    15 2   
    26    14    44 1   
    27    15    16 1   
    28    15    45 1   
    29    16    17 1   
    30    17    18 1   
    31    17    19 1   
    32    17    46 1   
    33    18    47 1   
    34    18    48 1   
    35    18    49 1   
    36    19    20 1   
    37    19    22 2   
    38    20    21 1   
    39    20    24 1   
    40    21    28 2   
    41    21    50 1   
    42    22    23 1   
    43    23    24 2   
    44    24    25 1   
    45    25    26 1   
    46    25    27 2   
    47    27    28 1   
    48    27    51 1   
    49    28    29 1   
    50    29    30 2   
    51    29    31 1   
    52    30    33 1   
    53    30    52 1   
    54    31    32 2   
    55    31    53 1   
    56    32    33 1   
    57    33    34 1   
    58    34    54 1   
    59    34    55 1   
    60    34    56 1   
@<TRIPOS>SUBSTRUCTURE
     1 5T1         1 TEMP              0 ****  ****    0 ROOT
