@<TRIPOS>MOLECULE
5T1
   56    60     1     0     0
SMALL
bcc


@<TRIPOS>ATOM
      1 C23         -7.3400     4.4440    -0.6040 c3         1 5T1       0.121700
      2 O3          -6.7120     3.2160    -0.3400 os         1 5T1      -0.394600
      3 C22         -6.1630     3.1610     0.9490 c3         1 5T1       0.134400
      4 C21         -5.5570     1.8030     1.1840 c3         1 5T1       0.138400
      5 O2          -4.4540     1.6450     0.3020 os         1 5T1      -0.301900
      6 C19         -3.7620     0.4980     0.3250 ca         1 5T1       0.007800
      7 C20         -2.7040     0.3700    -0.5570 ca         1 5T1      -0.074000
      8 C15         -1.9690    -0.8100    -0.5580 ca         1 5T1      -0.247900
      9 C16         -0.8430    -0.9610    -1.4810 c          1 5T1       0.718100
     10 O1          -0.5020    -0.0790    -2.2610 o          1 5T1      -0.643500
     11 C18         -4.0360    -0.5810     1.1830 ca         1 5T1       0.366200
     12 N7          -3.3420    -1.7000     1.1860 nb         1 5T1      -0.647000
     13 C14         -2.3190    -1.8340     0.3360 ca         1 5T1       0.481100
     14 C13         -1.5520    -3.0400     0.3350 cc         1 5T1      -0.301800
     15 C12         -0.5240    -3.1560    -0.5200 cd         1 5T1       0.001600
     16 N6          -0.1720    -2.1600    -1.4030 n          1 5T1      -0.366000
     17 C11          0.9610    -2.4150    -2.3130 c3         1 5T1       0.100400
     18 C17          0.6710    -3.5700    -3.2590 c3         1 5T1      -0.094100
     19 C10          2.1980    -2.6340    -1.5100 cc         1 5T1       0.290800
     20 N1           2.7970    -1.6710    -0.7510 na         1 5T1      -0.053200
     21 C5           2.5070    -0.3460    -0.5520 cc         1 5T1      -0.088300
     22 N5           2.8580    -3.7520    -1.3730 nd         1 5T1      -0.351700
     23 N4           3.8920    -3.5690    -0.5390 nd         1 5T1      -0.066000
     24 C4           3.8520    -2.3120    -0.1600 cc         1 5T1      -0.094300
     25 C3           4.6590    -1.5520     0.7200 cc         1 5T1       0.177900
     26 F1           5.6780    -2.1790     1.2970 f          1 5T1      -0.105900
     27 C2           4.3810    -0.2550     0.9590 cd         1 5T1      -0.161000
     28 C1           3.2730     0.3780     0.3040 cd         1 5T1       0.020000
     29 C6           2.9740     1.7800     0.5570 cd         1 5T1      -0.237300
     30 C8           3.7810     2.7250     1.1640 cc         1 5T1      -0.111300
     31 C7           1.8010     2.4960     0.2450 cd         1 5T1       0.328200
     32 N2           1.8890     3.7530     0.6260 nc         1 5T1      -0.517800
     33 N3           3.0930     3.8750     1.1770 na         1 5T1       0.117400
     34 C9           3.5210     5.1460     1.7090 c3         1 5T1       0.041600
     35 H1          -8.1580     4.6460     0.0980 h1         1 5T1       0.030700
     36 H2          -6.6390     5.2860    -0.5530 h1         1 5T1       0.030700
     37 H3          -7.7530     4.4020    -1.6110 h1         1 5T1       0.030700
     38 H4          -5.4030     3.9420     1.0950 h1         1 5T1       0.035200
     39 H5          -6.9310     3.3170     1.7190 h1         1 5T1       0.035200
     40 H6          -5.2330     1.7400     2.2280 h1         1 5T1       0.045700
     41 H7          -6.3040     1.0200     1.0120 h1         1 5T1       0.045700
     42 H8          -2.4580     1.1760    -1.2370 ha         1 5T1       0.174000
     43 H9          -4.8520    -0.5310     1.8940 h4         1 5T1       0.023100
     44 H10         -1.7920    -3.8430     1.0160 ha         1 5T1       0.167000
     45 H11          0.0900    -4.0450    -0.5480 h4         1 5T1       0.169000
     46 H12          1.0810    -1.5120    -2.9120 h1         1 5T1       0.104700
     47 H13          1.4780    -3.6620    -3.9850 hc         1 5T1       0.057700
     48 H14          0.5740    -4.5230    -2.7430 hc         1 5T1       0.057700
     49 H15         -0.2520    -3.3720    -3.8010 hc         1 5T1       0.057700
     50 H16          1.6860     0.0660    -1.1190 h4         1 5T1       0.191000
     51 H17          4.9970     0.3040     1.6520 ha         1 5T1       0.157000
     52 H18          4.7780     2.6580     1.5690 h4         1 5T1       0.174000
     53 H19          0.8990     2.1370    -0.2310 h4         1 5T1       0.049100
     54 H20          3.5110     5.9030     0.9290 h1         1 5T1       0.059700
     55 H21          2.8650     5.4570     2.5200 h1         1 5T1       0.059700
     56 H22          4.5320     5.0460     2.0930 h1         1 5T1       0.059700
@<TRIPOS>BOND
     1     1     2 1   
     2     1    35 1   
     3     1    36 1   
     4     1    37 1   
     5     2     3 1   
     6     3     4 1   
     7     3    38 1   
     8     3    39 1   
     9     4     5 1   
    10     4    40 1   
    11     4    41 1   
    12     5     6 1   
    13     6     7 ar  
    14     6    11 ar  
    15     7     8 ar  
    16     7    42 1   
    17     8     9 1   
    18     8    13 ar  
    19     9    10 2   
    20     9    16 1   
    21    11    12 ar  
    22    11    43 1   
    23    12    13 ar  
    24    13    14 1   
    25    14    15 2   
    26    14    44 1   
    27    15    16 1   
    28    15    45 1   
    29    16    17 1   
    30    17    18 1   
    31    17    19 1   
    32    17    46 1   
    33    18    47 1   
    34    18    48 1   
    35    18    49 1   
    36    19    20 1   
    37    19    22 2   
    38    20    21 1   
    39    20    24 1   
    40    21    28 2   
    41    21    50 1   
    42    22    23 1   
    43    23    24 2   
    44    24    25 1   
    45    25    26 1   
    46    25    27 2   
    47    27    28 1   
    48    27    51 1   
    49    28    29 1   
    50    29    30 2   
    51    29    31 1   
    52    30    33 1   
    53    30    52 1   
    54    31    32 2   
    55    31    53 1   
    56    32    33 1   
    57    33    34 1   
    58    34    54 1   
    59    34    55 1   
    60    34    56 1   
@<TRIPOS>SUBSTRUCTURE
     1 5T1         1 TEMP              0 ****  ****    0 ROOT
