@<TRIPOS>MOLECULE
5T2
   43    45     1     0     0
SMALL
bcc


@<TRIPOS>ATOM
      1 C1          -1.3720     4.4170    -0.1990 ca         1 5T2      -0.202000
      2 C2          -2.6820     4.2510     0.2370 ca         1 5T2      -0.047000
      3 C3          -3.2310     2.9930     0.3750 ca         1 5T2      -0.236000
      4 C11          2.0780     0.0800    -0.6450 ca         1 5T2       0.070600
      5 C12          3.2630     0.2740     0.0620 ca         1 5T2      -0.139000
      6 C13          4.3420    -0.5770    -0.1280 ca         1 5T2      -0.169300
      7 C14          4.2540    -1.6420    -1.0140 ca         1 5T2      -0.104000
      8 C15          3.0740    -1.8270    -1.7180 ca         1 5T2      -0.112000
      9 C16          1.9910    -0.9790    -1.5500 ca         1 5T2      -0.113000
     10 C17         -4.4480     0.4100     0.5300 c3         1 5T2       0.273100
     11 C18         -4.7880    -1.0500     0.4340 ca         1 5T2      -0.072300
     12 C19         -4.8050    -1.6970    -0.7980 ca         1 5T2      -0.231800
     13 C20         -5.1210    -3.0450    -0.8440 ca         1 5T2       0.401200
     14 C22         -5.3950    -3.1500     1.4060 ca         1 5T2       0.401200
     15 C23         -5.0890    -1.8050     1.5590 ca         1 5T2      -0.231800
     16 C24          5.5860    -0.3630     0.6790 c3         1 5T2       0.720200
     17 C4          -2.4890     1.8330     0.0790 ca         1 5T2       0.262600
     18 C5          -1.1330     1.9980    -0.3180 ca         1 5T2      -0.260600
     19 C6          -0.6190     3.2900    -0.4650 ca         1 5T2      -0.052000
     20 C7          -0.2850     0.8170    -0.6030 c          1 5T2       0.706700
     21 N8          -3.0540     0.6070     0.2080 nu         1 5T2      -0.775600
     22 N9           1.0540     1.0040    -0.4280 ns         1 5T2      -0.471100
     23 O10         -0.7480    -0.2610    -0.9570 o          1 5T2      -0.616100
     24 N21         -5.4140    -3.7680     0.2320 nb         1 5T2      -0.657000
     25 F25          5.8470     0.9350     0.8720 f          1 5T2      -0.235300
     26 F26          5.4860    -0.9190     1.8970 f          1 5T2      -0.235300
     27 F27          6.6640    -0.8990     0.0990 f          1 5T2      -0.235300
     28 H1          -0.9500     5.4020    -0.3340 ha         1 5T2       0.138000
     29 H2          -3.2910     5.1170     0.4640 ha         1 5T2       0.131000
     30 H3          -4.2550     2.9050     0.7110 ha         1 5T2       0.134000
     31 H4           3.3290     1.0980     0.7620 ha         1 5T2       0.143000
     32 H5           5.0830    -2.3170    -1.1710 ha         1 5T2       0.150000
     33 H6           2.9970    -2.6440    -2.4220 ha         1 5T2       0.141000
     34 H7           1.0980    -1.1440    -2.1310 ha         1 5T2       0.165000
     35 H8          -5.0940     0.9700    -0.1560 h1         1 5T2       0.049200
     36 H9          -4.6680     0.7740     1.5380 h1         1 5T2       0.049200
     37 H10         -4.5850    -1.1640    -1.7150 ha         1 5T2       0.145000
     38 H11         -5.1430    -3.5630    -1.7970 h4         1 5T2       0.021600
     39 H12         -5.6350    -3.7510     2.2760 h4         1 5T2       0.021600
     40 H13         -5.0880    -1.3590     2.5450 ha         1 5T2       0.145000
     41 H14          0.3930     3.4270    -0.8250 ha         1 5T2       0.126000
     42 H15         -2.5380    -0.1700    -0.1730 hn         1 5T2       0.473800
     43 H16          1.3360     1.8410     0.0570 hn         1 5T2       0.325500
@<TRIPOS>BOND
     1     1     2 ar  
     2     1    19 ar  
     3     1    28 1   
     4     2     3 ar  
     5     2    29 1   
     6     3    17 ar  
     7     3    30 1   
     8     4     5 ar  
     9     4     9 ar  
    10     4    22 1   
    11     5     6 ar  
    12     5    31 1   
    13     6     7 ar  
    14     6    16 1   
    15     7     8 ar  
    16     7    32 1   
    17     8     9 ar  
    18     8    33 1   
    19     9    34 1   
    20    10    11 1   
    21    10    21 1   
    22    10    35 1   
    23    10    36 1   
    24    11    12 ar  
    25    11    15 ar  
    26    12    13 ar  
    27    12    37 1   
    28    13    24 ar  
    29    13    38 1   
    30    14    15 ar  
    31    14    24 ar  
    32    14    39 1   
    33    15    40 1   
    34    16    25 1   
    35    16    26 1   
    36    16    27 1   
    37    17    18 ar  
    38    17    21 1   
    39    18    19 ar  
    40    18    20 1   
    41    19    41 1   
    42    20    22 1   
    43    20    23 2   
    44    21    42 1   
    45    22    43 1   
@<TRIPOS>SUBSTRUCTURE
     1 5T2         1 TEMP              0 ****  ****    0 ROOT
