@<TRIPOS>MOLECULE
5T2
   43    45     1     0     0
SMALL
No Charge or Current Charge


@<TRIPOS>ATOM
      1 C1          -1.2230     4.3770     0.4850 ca         1 5T2      -0.184000
      2 C2          -2.6130     4.3460     0.6330 ca         1 5T2      -0.029000
      3 C3          -3.2780     3.1140     0.6350 ca         1 5T2      -0.218000
      4 C11          2.0640    -0.1220    -0.2860 ca         1 5T2      -0.022000
      5 C12          3.3680     0.4020    -0.3880 ca         1 5T2      -0.121000
      6 C13          4.4820    -0.4380    -0.6090 ca         1 5T2      -0.169300
      7 C14          4.2740    -1.8280    -0.7180 ca         1 5T2      -0.086000
      8 C15          2.9790    -2.3610    -0.6250 ca         1 5T2      -0.094000
      9 C16          1.8770    -1.5160    -0.4130 ca         1 5T2      -0.095000
     10 C17         -4.6010     0.4920    -0.1010 c3         1 5T2       0.273100
     11 C18         -4.9130    -0.9970    -0.0930 ca         1 5T2      -0.072300
     12 C19         -4.4350    -1.8470    -1.1080 ca         1 5T2      -0.148500
     13 C20         -4.7380    -3.2190    -1.0600 ca         1 5T2       0.335900
     14 C22         -5.9350    -2.9610     0.9060 ca         1 5T2       0.335900
     15 C23         -5.6780    -1.5790     0.9350 ca         1 5T2      -0.148500
     16 C24          5.8950     0.1540    -0.7030 c3         1 5T2       0.356300
     17 C4          -2.5670     1.9100     0.4870 ca         1 5T2       0.401000
     18 C5          -1.1570     1.9240     0.3400 ca         1 5T2      -0.260600
     19 C6          -0.4990     3.1840     0.3410 ca         1 5T2      -0.034000
     20 C7          -0.3550     0.6380     0.1820 c          1 5T2       0.639700
     21 N8          -3.2800     0.7180     0.4930 nu         1 5T2      -0.969200
     22 N9           1.0030     0.8030    -0.0690 ns         1 5T2      -0.145000
     23 O10         -0.8700    -0.4710     0.2860 o          1 5T2      -0.616100
     24 N21         -5.4770    -3.7770    -0.0730 nb         1 5T2      -0.657000
     25 F25          5.9000     1.3810    -1.2730 f          1 5T2      -0.114000
     26 F26          6.4540     0.2850     0.5210 f          1 5T2      -0.114000
     27 F27          6.7310    -0.6150    -1.4390 f          1 5T2      -0.114000
     28 H1          -0.7010     5.3310     0.4850 ha         1 5T2       0.120000
     29 H2          -3.1730     5.2720     0.7490 ha         1 5T2       0.113000
     30 H3          -4.3560     3.1010     0.7590 ha         1 5T2       0.116000
     31 H4           3.5160     1.4760    -0.2880 ha         1 5T2       0.125000
     32 H5           5.1130    -2.5030    -0.8760 ha         1 5T2       0.132000
     33 H6           2.8280    -3.4340    -0.7160 ha         1 5T2       0.123000
     34 H7           0.8910    -1.9660    -0.3550 ha         1 5T2       0.147000
     35 H8          -4.6170     0.8570    -1.1370 h1         1 5T2       0.049200
     36 H9          -5.3750     1.0350     0.4590 h1         1 5T2       0.049200
     37 H10         -3.8340    -1.4560    -1.9250 ha         1 5T2       0.127000
     38 H11         -4.3780    -3.8930    -1.8370 h4         1 5T2       0.021600
     39 H12         -6.5250    -3.4310     1.6930 h4         1 5T2       0.021600
     40 H13         -6.0680    -0.9760     1.7490 ha         1 5T2       0.127000
     41 H14          0.5800     3.2670     0.2380 ha         1 5T2       0.108000
     42 H15         -2.6510    -0.0940     0.4620 hn         1 5T2       0.529000
     43 H16          1.2980     1.7680    -0.1160 hn         1 5T2       0.159000
@<TRIPOS>BOND
     1     1     2 ar  
     2     1    19 ar  
     3     1    28 1   
     4     2     3 ar  
     5     2    29 1   
     6     3    17 ar  
     7     3    30 1   
     8     4     5 ar  
     9     4     9 ar  
    10     4    22 1   
    11     5     6 ar  
    12     5    31 1   
    13     6     7 ar  
    14     6    16 1   
    15     7     8 ar  
    16     7    32 1   
    17     8     9 ar  
    18     8    33 1   
    19     9    34 1   
    20    10    11 1   
    21    10    21 1   
    22    10    35 1   
    23    10    36 1   
    24    11    12 ar  
    25    11    15 ar  
    26    12    13 ar  
    27    12    37 1   
    28    13    24 ar  
    29    13    38 1   
    30    14    15 ar  
    31    14    24 ar  
    32    14    39 1   
    33    15    40 1   
    34    16    25 1   
    35    16    26 1   
    36    16    27 1   
    37    17    18 ar  
    38    17    21 1   
    39    18    19 ar  
    40    18    20 1   
    41    19    41 1   
    42    20    22 1   
    43    20    23 2   
    44    21    42 1   
    45    22    43 1   
@<TRIPOS>SUBSTRUCTURE
     1 5T2         1 TEMP              0 ****  ****    0 ROOT
