@<TRIPOS>MOLECULE
5T3
   38    37     1     0     0
SMALL
bcc


@<TRIPOS>ATOM
      1 N            3.5170     1.8890     0.2270 n8         1 5T3      -0.878800
      2 CA           3.3740     0.4460     0.3510 c3         1 5T3       0.021500
      3 C            4.5670    -0.2730    -0.3140 c          1 5T3       0.934600
      4 O            5.1320     0.3160    -1.2580 o          1 5T3      -0.838800
      5 CB           2.0760    -0.1270    -0.2440 c3         1 5T3      -0.100400
      6 CG           0.8020     0.4030     0.4020 c3         1 5T3      -0.078400
      7 CD          -0.4610    -0.2190    -0.1820 c3         1 5T3      -0.080400
      8 CE          -1.7250     0.2980     0.4930 c3         1 5T3       0.179800
      9 NZ          -2.9350    -0.2730    -0.0700 n3         1 5T3      -0.746600
     10 CH1         -4.1120     0.5900     0.0090 c3         1 5T3       0.195500
     11 CH2         -3.1990    -1.6280     0.3890 c3         1 5T3       0.180800
     12 CT1         -4.3840     1.1740     1.3990 c3         1 5T3      -0.102100
     13 CT2         -3.8810    -2.4770    -0.6740 c3         1 5T3      -0.089100
     14 CT3         -4.0580     1.6880    -1.0480 c3         1 5T3      -0.102100
     15 H            3.6970     2.1070    -0.7450 hn         1 5T3       0.319300
     16 H2           2.6520     2.3520     0.4740 hn         1 5T3       0.319300
     17 HA           3.3800     0.1970     1.4190 h1         1 5T3       0.041700
     18 HB2          2.0540     0.0800    -1.3210 hc         1 5T3       0.043700
     19 HB3          2.0950    -1.2170    -0.1400 hc         1 5T3       0.043700
     20 HG2          0.8390     0.2130     1.4800 hc         1 5T3       0.024200
     21 HG3          0.7410     1.4910     0.2870 hc         1 5T3       0.024200
     22 HD2         -0.5220    -0.0050    -1.2540 hc         1 5T3       0.042700
     23 HD3         -0.3980    -1.3080    -0.0910 hc         1 5T3       0.042700
     24 HE2         -1.6490     0.1320     1.5810 h1         1 5T3       0.024700
     25 HE3         -1.7510     1.3830     0.3630 h1         1 5T3       0.024700
     26 H15         -4.9680    -0.0430    -0.2440 h1         1 5T3       0.042700
     27 H16         -2.2500    -2.1000     0.6480 h1         1 5T3       0.028700
     28 H17         -3.7980    -1.6390     1.3130 h1         1 5T3       0.028700
     29 H18         -3.6430     1.9270     1.6750 hc         1 5T3       0.033200
     30 H19         -5.3620     1.6560     1.4240 hc         1 5T3       0.033200
     31 H20         -4.3790     0.4020     2.1710 hc         1 5T3       0.033200
     32 H21         -4.8390    -2.0560    -0.9810 hc         1 5T3       0.031367
     33 H22         -3.2520    -2.5550    -1.5620 hc         1 5T3       0.031367
     34 H23         -4.0720    -3.4830    -0.3000 hc         1 5T3       0.031367
     35 H24         -3.9650     1.2580    -2.0450 hc         1 5T3       0.033200
     36 H25         -4.9660     2.2920    -1.0220 hc         1 5T3       0.033200
     37 H26         -3.2150     2.3650    -0.8960 hc         1 5T3       0.033200
     38 OXT          4.8370    -1.4130     0.1160 o          1 5T3      -0.838800
@<TRIPOS>BOND
     1     1     2 1   
     2     1    15 1   
     3     1    16 1   
     4     2     3 1   
     5     2     5 1   
     6     2    17 1   
     7     3     4 1   
     8     3    38 1   
     9     5     6 1   
    10     5    18 1   
    11     5    19 1   
    12     6     7 1   
    13     6    20 1   
    14     6    21 1   
    15     7     8 1   
    16     7    22 1   
    17     7    23 1   
    18     8     9 1   
    19     8    24 1   
    20     8    25 1   
    21     9    10 1   
    22     9    11 1   
    23    10    12 1   
    24    10    14 1   
    25    10    26 1   
    26    11    13 1   
    27    11    27 1   
    28    11    28 1   
    29    12    29 1   
    30    12    30 1   
    31    12    31 1   
    32    13    32 1   
    33    13    33 1   
    34    13    34 1   
    35    14    35 1   
    36    14    36 1   
    37    14    37 1   
@<TRIPOS>SUBSTRUCTURE
     1 5T3         1 TEMP              0 ****  ****    0 ROOT
