@<TRIPOS>MOLECULE
5T4
   44    46     1     0     0
SMALL
bcc


@<TRIPOS>ATOM
      1 C1           6.1460     1.0120    -0.8880 ca         1 5T4      -0.440600
      2 C2           5.9050    -0.0470    -0.0270 ca         1 5T4       0.481200
      3 C3           3.6880     0.4380     0.0420 ca         1 5T4       0.912900
      4 C4           2.1740    -1.0420     1.2830 c6         1 5T4       0.218800
      5 C5           1.4400    -2.0500     0.4040 c6         1 5T4      -0.097400
      6 C6           0.1750    -1.4600    -0.2280 c6         1 5T4      -0.076700
      7 C8           1.2640     0.8190     0.0240 c6         1 5T4       0.218800
      8 C9          -0.9490    -1.3500     0.8030 c3         1 5T4       0.112000
      9 C10         -3.1450    -0.2390     0.8670 c          1 5T4       0.794100
     10 C13         -6.4490     0.7150    -0.3100 c5         1 5T4      -0.094900
     11 C14         -5.3800     0.7570     0.7760 c5         1 5T4       0.111500
     12 O           -3.0260     0.0710     2.0520 o          1 5T4      -0.649100
     13 N4          -4.2540     0.0750     0.1550 n          1 5T4      -0.508800
     14 C12         -5.6370     0.7610    -1.6010 c5         1 5T4      -0.094900
     15 C11         -4.4220    -0.1030    -1.2800 c5         1 5T4       0.111500
     16 N3          -2.1720    -0.9000     0.1830 ns         1 5T4      -0.590900
     17 C7           0.5000    -0.1220    -0.9000 c6         1 5T4      -0.097400
     18 N2           2.4580     0.1710     0.5380 nh         1 5T4      -0.761300
     19 N1           3.8140     1.4820    -0.7910 nb         1 5T4      -0.775500
     20 C            5.0270     1.7520    -1.2380 ca         1 5T4       0.481200
     21 N            4.7050    -0.3430     0.4380 nb         1 5T4      -0.775500
     22 H1           7.1320     1.2410    -1.2620 ha         1 5T4       0.152000
     23 H2           6.7170    -0.6880     0.3010 h4         1 5T4       0.017600
     24 H3           1.5640    -0.7710     2.1510 h1         1 5T4       0.069200
     25 H4           3.0990    -1.4640     1.6620 h1         1 5T4       0.069200
     26 H5           2.1160    -2.3820    -0.3890 hc         1 5T4       0.051450
     27 H6           1.1920    -2.9350     0.9970 hc         1 5T4       0.051450
     28 H7          -0.1630    -2.1560    -1.0050 hc         1 5T4       0.042700
     29 H8           1.5380     1.7310    -0.4960 h1         1 5T4       0.069200
     30 H9           0.6420     1.1110     0.8770 h1         1 5T4       0.069200
     31 H10         -1.0820    -2.3280     1.2820 h1         1 5T4       0.052200
     32 H11         -0.6890    -0.6510     1.5980 h1         1 5T4       0.052200
     33 H13         -7.1590     1.5370    -0.2210 hc         1 5T4       0.053950
     34 H14         -5.1240     1.7890     1.0360 h1         1 5T4       0.046950
     35 H15         -5.6950     0.2550     1.6910 h1         1 5T4       0.046950
     36 H16         -6.1820     0.3970    -2.4710 hc         1 5T4       0.053950
     37 H17         -5.3200     1.7850    -1.8100 hc         1 5T4       0.053950
     38 H18         -3.5360     0.2210    -1.8320 h1         1 5T4       0.046950
     39 H19         -4.6070    -1.1530    -1.5320 h1         1 5T4       0.046950
     40 H20         -2.3990    -1.3220    -0.7030 hn         1 5T4       0.302500
     41 H21          1.1090    -0.3080    -1.7900 hc         1 5T4       0.051450
     42 H22         -0.4130     0.3680    -1.2430 hc         1 5T4       0.051450
     43 H23          5.1120     2.5990    -1.9100 h4         1 5T4       0.017600
     44 H12         -7.0130    -0.2190    -0.2530 hc         1 5T4       0.053950
@<TRIPOS>BOND
     1     1     2 ar  
     2     1    20 ar  
     3     1    22 1   
     4     2    21 ar  
     5     2    23 1   
     6     3    18 1   
     7     3    19 ar  
     8     3    21 ar  
     9     4     5 1   
    10     4    18 1   
    11     4    24 1   
    12     4    25 1   
    13     5     6 1   
    14     5    26 1   
    15     5    27 1   
    16     6     8 1   
    17     6    17 1   
    18     6    28 1   
    19     7    17 1   
    20     7    18 1   
    21     7    29 1   
    22     7    30 1   
    23     8    16 1   
    24     8    31 1   
    25     8    32 1   
    26     9    12 2   
    27     9    13 1   
    28     9    16 1   
    29    10    11 1   
    30    10    14 1   
    31    10    33 1   
    32    10    44 1   
    33    11    13 1   
    34    11    34 1   
    35    11    35 1   
    36    13    15 1   
    37    14    15 1   
    38    14    36 1   
    39    14    37 1   
    40    15    38 1   
    41    15    39 1   
    42    16    40 1   
    43    17    41 1   
    44    17    42 1   
    45    19    20 ar  
    46    20    43 1   
@<TRIPOS>SUBSTRUCTURE
     1 5T4         1 TEMP              0 ****  ****    0 ROOT
