@<TRIPOS>MOLECULE
5T4
   44    46     1     0     0
SMALL
No Charge or Current Charge


@<TRIPOS>ATOM
      1 C1           5.9620     1.8830     0.3890 ca         1 5T4      -0.292000
      2 C2           5.8540     0.5540     0.8230 ca         1 5T4       0.152900
      3 C3           3.6870     0.4760     0.0400 ca         1 5T4       0.386900
      4 C4           2.2820    -1.5980     0.5250 c6         1 5T4       0.218800
      5 C5           1.3480    -2.5270    -0.2930 c6         1 5T4      -0.097400
      6 C6          -0.0080    -1.8570    -0.6290 c6         1 5T4      -0.076700
      7 C8           1.2060     0.4110    -0.5470 c6         1 5T4       0.218800
      8 C9          -0.9090    -1.6910     0.6340 c3         1 5T4       0.112000
      9 C10         -2.6660     0.1090     0.4760 c          1 5T4       0.660100
     10 C13         -6.0880     1.3910    -0.0550 c5         1 5T4      -0.094900
     11 C14         -4.5900     1.7130     0.1770 c5         1 5T4       0.111500
     12 O           -1.9520     0.9760     0.9530 o          1 5T4      -0.649100
     13 N4          -3.9760     0.3750     0.0530 n          1 5T4      -0.441800
     14 C12         -6.0070     0.2750    -1.1260 c5         1 5T4      -0.094900
     15 C11         -4.8780    -0.6250    -0.5610 c5         1 5T4       0.111500
     16 N3          -2.2490    -1.1890     0.3180 ns         1 5T4      -0.523900
     17 C7           0.2840    -0.5250    -1.3680 c6         1 5T4      -0.097400
     18 N2           2.4850    -0.2690    -0.1470 nh         1 5T4      -0.761300
     19 N1           3.7070     1.7520    -0.4100 nb         1 5T4      -0.249500
     20 C            4.8430     2.4520    -0.2340 ca         1 5T4       0.152900
     21 N            4.7200    -0.1500     0.6500 nb         1 5T4      -0.249500
     22 H1           6.8790     2.4500     0.5300 ha         1 5T4       0.134000
     23 H2           6.6830     0.0460     1.3150 h4         1 5T4       0.017600
     24 H3           1.8620    -1.4490     1.5310 h1         1 5T4       0.069200
     25 H4           3.2320    -2.1360     0.6550 h1         1 5T4       0.069200
     26 H5           1.8560    -2.8090    -1.2260 hc         1 5T4       0.051450
     27 H6           1.1830    -3.4630     0.2570 hc         1 5T4       0.051450
     28 H7          -0.5580    -2.5210    -1.3110 hc         1 5T4       0.042700
     29 H8           1.3940     1.2980    -1.1690 h1         1 5T4       0.069200
     30 H9           0.6720     0.7620     0.3490 h1         1 5T4       0.069200
     31 H10         -1.0220    -2.6720     1.1150 h1         1 5T4       0.052200
     32 H11         -0.4250    -1.0240     1.3580 h1         1 5T4       0.052200
     33 H13         -6.6580     2.2650    -0.3910 hc         1 5T4       0.053950
     34 H14         -4.1970     2.3890    -0.5940 h1         1 5T4       0.046950
     35 H15         -4.4160     2.1650     1.1620 h1         1 5T4       0.046950
     36 H16         -6.9510    -0.2660    -1.2530 hc         1 5T4       0.053950
     37 H17         -5.7290     0.6870    -2.1040 hc         1 5T4       0.053950
     38 H18         -4.3900    -1.2050    -1.3560 h1         1 5T4       0.046950
     39 H19         -5.2600    -1.3190     0.2000 h1         1 5T4       0.046950
     40 H20         -2.9210    -1.8320    -0.0770 hn         1 5T4       0.302500
     41 H21          0.7670    -0.7430    -2.3300 hc         1 5T4       0.051450
     42 H22         -0.6500    -0.0050    -1.6140 hc         1 5T4       0.051450
     43 H23          4.8530     3.4790    -0.5980 h4         1 5T4       0.017600
     44 H12         -6.5600     1.0230     0.8640 hc         1 5T4       0.053950
@<TRIPOS>BOND
     1     1     2 ar  
     2     1    20 ar  
     3     1    22 1   
     4     2    21 ar  
     5     2    23 1   
     6     3    18 1   
     7     3    19 ar  
     8     3    21 ar  
     9     4     5 1   
    10     4    18 1   
    11     4    24 1   
    12     4    25 1   
    13     5     6 1   
    14     5    26 1   
    15     5    27 1   
    16     6     8 1   
    17     6    17 1   
    18     6    28 1   
    19     7    17 1   
    20     7    18 1   
    21     7    29 1   
    22     7    30 1   
    23     8    16 1   
    24     8    31 1   
    25     8    32 1   
    26     9    12 2   
    27     9    13 1   
    28     9    16 1   
    29    10    11 1   
    30    10    14 1   
    31    10    33 1   
    32    10    44 1   
    33    11    13 1   
    34    11    34 1   
    35    11    35 1   
    36    13    15 1   
    37    14    15 1   
    38    14    36 1   
    39    14    37 1   
    40    15    38 1   
    41    15    39 1   
    42    16    40 1   
    43    17    41 1   
    44    17    42 1   
    45    19    20 ar  
    46    20    43 1   
@<TRIPOS>SUBSTRUCTURE
     1 5T4         1 TEMP              0 ****  ****    0 ROOT
