@<TRIPOS>MOLECULE
5T5
   44    47     1     0     0
SMALL
abcg2


@<TRIPOS>ATOM
      1 C4         -19.6050    38.0300    92.0940 cx         1 5T5      -0.059400
      2 C6         -20.8770    40.2510    91.7290 c          1 5T5       0.617700
      3 C7         -16.2800    40.0660    91.4920 c2         1 5T5       0.784500
      4 C8         -21.0830    41.3880    90.7750 ca         1 5T5      -0.210600
      5 C20        -21.9980    42.3880    91.1140 ca         1 5T5       0.384900
      6 C21        -15.8980    36.6880    96.2750 ca         1 5T5       0.093100
      7 C22        -20.7100    42.5780    88.7470 ca         1 5T5       0.047000
      8 C26        -17.2700    36.8150    96.1520 ca         1 5T5      -0.109500
      9 C28        -21.6320    43.5300    89.1650 ca         1 5T5       0.370900
     10 CL         -19.9290    42.7580    87.2000 cl         1 5T5      -0.188000
     11 N13        -22.2620    43.4360    90.3370 nb         1 5T5      -0.660000
     12 C14        -20.4160    41.4950    89.5580 ca         1 5T5      -0.030000
     13 O15        -21.7360    40.0030    92.5640 o          1 5T5      -0.528100
     14 C2         -19.6200    39.4850    91.6440 cx         1 5T5      -0.265700
     15 C1         -18.9900    39.0540    92.9610 cx         1 5T5      -0.085700
     16 C3         -17.4840    39.1970    93.1440 c5         1 5T5       0.200500
     17 C9         -17.1420    40.6890    93.4620 c5         1 5T5       0.130600
     18 O10        -16.4690    41.1600    92.2700 os         1 5T5      -0.473600
     19 N17        -15.5400    40.2890    90.3820 nv         1 5T5      -1.018200
     20 N5         -16.7690    38.9480    91.8820 n2         1 5T5      -0.722900
     21 C11        -16.9590    38.2730    94.2420 ca         1 5T5      -0.064300
     22 C19        -17.7960    37.6030    95.1320 ca         1 5T5      -0.084000
     23 C25        -15.0390    37.3200    95.3850 ca         1 5T5      -0.109500
     24 C18        -15.5790    38.1120    94.3820 ca         1 5T5      -0.084000
     25 C12        -14.7450    36.3940    98.3300 c3         1 5T5       0.379300
     26 F23        -13.5200    36.8900    97.9580 f          1 5T5      -0.137000
     27 F24        -15.4240    37.4640    98.8450 f          1 5T5      -0.137000
     28 H1         -20.5540    37.6110    92.3980 hc         1 5T5       0.093200
     29 H2         -18.9510    37.3800    91.5300 hc         1 5T5       0.093200
     30 H3         -22.5230    42.3320    92.0590 h4         1 5T5       0.044100
     31 H4         -17.9190    36.3010    96.8490 ha         1 5T5       0.133500
     32 H5         -21.8640    44.3820    88.5370 h4         1 5T5       0.038100
     33 H6         -19.7000    40.7540    89.2300 ha         1 5T5       0.136000
     34 H7         -18.9300    39.7410    90.8580 hc         1 5T5       0.098700
     35 H8         -19.5700    39.3530    93.8250 hc         1 5T5       0.094700
     36 H9         -16.4590    40.7970    94.3020 h1         1 5T5       0.074700
     37 H10        -18.0270    41.3010    93.6180 h1         1 5T5       0.074700
     38 H11        -15.5880    39.5900    89.6580 hn         1 5T5       0.492500
     39 H12        -15.4550    41.2440    90.0700 hn         1 5T5       0.492500
     40 H13        -18.8690    37.6890    95.0510 ha         1 5T5       0.124000
     41 H14        -13.9700    37.1930    95.4720 ha         1 5T5       0.133500
     42 H15        -14.9110    38.6070    93.6900 ha         1 5T5       0.124000
     43 H16        -14.6020    35.6420    99.1010 h3         1 5T5       0.106700
     44 O16        -15.4090    35.8400    97.2830 os         1 5T5      -0.392100
@<TRIPOS>BOND
     1     1    14 1   
     2     1    15 1   
     3     1    28 1   
     4     1    29 1   
     5     2     4 1   
     6     2    13 2   
     7     2    14 1   
     8     3    18 1   
     9     3    19 1   
    10     3    20 2   
    11     4     5 ar  
    12     4    12 ar  
    13     5    11 ar  
    14     5    30 1   
    15     6     8 ar  
    16     6    23 ar  
    17     6    44 1   
    18     7     9 ar  
    19     7    10 1   
    20     7    12 ar  
    21     8    22 ar  
    22     8    31 1   
    23     9    11 ar  
    24     9    32 1   
    25    12    33 1   
    26    14    15 1   
    27    14    34 1   
    28    15    16 1   
    29    15    35 1   
    30    16    17 1   
    31    16    20 1   
    32    16    21 1   
    33    17    18 1   
    34    17    36 1   
    35    17    37 1   
    36    19    38 1   
    37    19    39 1   
    38    21    22 ar  
    39    21    24 ar  
    40    22    40 1   
    41    23    24 ar  
    42    23    41 1   
    43    24    42 1   
    44    25    26 1   
    45    25    27 1   
    46    25    43 1   
    47    25    44 1   
@<TRIPOS>SUBSTRUCTURE
     1 5T5         1 TEMP              0 ****  ****    0 ROOT
