@<TRIPOS>MOLECULE
5T5
   44    47     1     0     0
SMALL
No Charge or Current Charge


@<TRIPOS>ATOM
      1 C4         -18.7320    39.1950    92.0040 cx         1 5T5      -0.059400
      2 C6         -20.3450    41.2330    91.7990 c          1 5T5       0.617700
      3 C7         -15.7440    41.6640    92.7150 c2         1 5T5       0.784500
      4 C8         -21.0680    41.0230    90.5010 ca         1 5T5      -0.210600
      5 C20        -22.4270    41.3820    90.4120 ca         1 5T5       0.384900
      6 C21        -16.3990    36.6560    96.2090 ca         1 5T5       0.093100
      7 C22        -21.1940    40.3220    88.1860 ca         1 5T5       0.047000
      8 C26        -17.1470    37.7420    96.6860 ca         1 5T5      -0.109500
      9 C28        -22.5490    40.7070    88.1940 ca         1 5T5       0.370900
     10 Cl         -20.4520    39.6520    86.7340 cl         1 5T5      -0.188000
     11 N13        -23.1630    41.2300    89.2850 nb         1 5T5      -0.660000
     12 C14        -20.4370    40.4820    89.3560 ca         1 5T5      -0.030000
     13 O15        -20.8700    41.8260    92.7330 o          1 5T5      -0.528100
     14 C2         -18.9350    40.7010    91.9280 cx         1 5T5      -0.265700
     15 C1         -18.5190    40.0440    93.2390 cx         1 5T5      -0.085700
     16 C3         -17.0260    40.1970    93.6880 c5         1 5T5       0.200500
     17 C9         -16.9340    41.4970    94.5470 c5         1 5T5       0.130600
     18 O10        -16.3590    42.4430    93.6290 os         1 5T5      -0.473600
     19 N17        -14.9710    42.3680    91.8870 nv         1 5T5      -1.018200
     20 N5         -16.0280    40.4340    92.6060 n2         1 5T5      -0.722900
     21 C11        -16.8010    38.9620    94.5870 ca         1 5T5      -0.064300
     22 C19        -17.3510    38.8810    95.8880 ca         1 5T5      -0.084000
     23 C25        -15.8550    36.7190    94.9080 ca         1 5T5      -0.109500
     24 C18        -16.0600    37.8590    94.1100 ca         1 5T5      -0.084000
     25 C12        -15.5070    34.3730    96.7170 c3         1 5T5       0.379300
     26 F23        -16.0320    33.7620    95.6290 f          1 5T5      -0.137000
     27 F24        -14.2130    34.6540    96.4350 f          1 5T5      -0.137000
     28 H1         -19.6120    38.5540    91.9830 hc         1 5T5       0.093200
     29 H2         -17.8640    38.7710    91.5040 hc         1 5T5       0.093200
     30 H3         -22.9560    41.8030    91.2670 h4         1 5T5       0.044100
     31 H4         -17.5770    37.6990    97.6840 ha         1 5T5       0.133500
     32 H5         -23.1610    40.5950    87.3000 h4         1 5T5       0.038100
     33 H6         -19.3890    40.1930    89.3580 ha         1 5T5       0.136000
     34 H7         -18.1960    41.2720    91.3740 hc         1 5T5       0.098700
     35 H8         -19.2750    39.9630    94.0170 hc         1 5T5       0.094700
     36 H9         -16.2420    41.3730    95.3910 h1         1 5T5       0.074700
     37 H10        -17.8990    41.8610    94.9240 h1         1 5T5       0.074700
     38 H11        -14.9050    41.9180    90.9850 hn         1 5T5       0.492500
     39 H12        -15.2470    43.3400    91.8540 hn         1 5T5       0.492500
     40 H13        -17.9490    39.6960    96.2890 ha         1 5T5       0.124000
     41 H14        -15.2750    35.9000    94.4940 ha         1 5T5       0.133500
     42 H15        -15.6360    37.8790    93.1090 ha         1 5T5       0.124000
     43 H16        -15.5310    33.6680    97.5540 h3         1 5T5       0.106700
     44 O16        -16.2430    35.5700    97.0540 os         1 5T5      -0.392100
@<TRIPOS>BOND
     1     1    14 1   
     2     1    15 1   
     3     1    28 1   
     4     1    29 1   
     5     2     4 1   
     6     2    13 2   
     7     2    14 1   
     8     3    18 1   
     9     3    19 1   
    10     3    20 2   
    11     4     5 ar  
    12     4    12 ar  
    13     5    11 ar  
    14     5    30 1   
    15     6     8 ar  
    16     6    23 ar  
    17     6    44 1   
    18     7     9 ar  
    19     7    10 1   
    20     7    12 ar  
    21     8    22 ar  
    22     8    31 1   
    23     9    11 ar  
    24     9    32 1   
    25    12    33 1   
    26    14    15 1   
    27    14    34 1   
    28    15    16 1   
    29    15    35 1   
    30    16    17 1   
    31    16    20 1   
    32    16    21 1   
    33    17    18 1   
    34    17    36 1   
    35    17    37 1   
    36    19    38 1   
    37    19    39 1   
    38    21    22 ar  
    39    21    24 ar  
    40    22    40 1   
    41    23    24 ar  
    42    23    41 1   
    43    24    42 1   
    44    25    26 1   
    45    25    27 1   
    46    25    43 1   
    47    25    44 1   
@<TRIPOS>SUBSTRUCTURE
     1 5T5         1 TEMP              0 ****  ****    0 ROOT
