@<TRIPOS>MOLECULE
5T6
   48    51     1     0     0
SMALL
abcg2


@<TRIPOS>ATOM
      1 C4          -2.0180    -0.6910     0.1490 ca         1 5T6      -0.058300
      2 C5           0.3060    -1.0990     0.8250 ca         1 5T6      -0.079300
      3 C7          -1.3000    -3.0850     0.7220 c5         1 5T6       0.131600
      4 C8          -3.9890     1.2640     0.2470 ca         1 5T6       0.089100
      5 C10          1.4100    -0.6690     0.1020 ca         1 5T6      -0.068000
      6 C13          2.5010    -0.0670     0.7330 cp         1 5T6      -0.044000
      7 C15          3.6550     0.3930    -0.0610 cp         1 5T6      -0.069000
      8 C17         -2.0810     0.2920    -0.8310 ca         1 5T6      -0.070000
      9 C24          3.4840     0.9700    -1.3200 ca         1 5T6       0.347900
     10 C26          5.7220     1.2910    -1.6200 ca         1 5T6       0.346900
     11 C28          2.4800     0.0950     2.1160 ca         1 5T6      -0.092000
     12 F22         -5.6880     2.3700    -1.7700 f          1 5T6      -0.136000
     13 C14         -6.0240     2.2180    -0.4640 c3         1 5T6       0.387300
     14 F21         -6.6340     1.0110    -0.3920 f          1 5T6      -0.136000
     15 O11         -4.9370     2.2720     0.3390 os         1 5T6      -0.395100
     16 C12         -3.9530     0.3020     1.2520 ca         1 5T6      -0.064300
     17 C30         -4.9340     0.3070     2.3870 c3         1 5T6      -0.043800
     18 C9          -2.9510    -0.6620     1.1790 ca         1 5T6      -0.110000
     19 C19         -3.0610     1.2700    -0.7820 ca         1 5T6      -0.111000
     20 C1          -0.8990    -1.7180     0.1120 c5         1 5T6       0.221800
     21 N2          -0.5660    -2.0670    -1.2580 n2         1 5T6      -0.736900
     22 C3          -0.4360    -3.3360    -1.2930 c2         1 5T6       0.801500
     23 N20          0.0080    -4.0720    -2.3250 nv         1 5T6      -1.017200
     24 O6          -0.7140    -4.0280    -0.1750 os         1 5T6      -0.462600
     25 C27          0.3010    -0.9220     2.2070 ca         1 5T6      -0.097000
     26 C29          1.3820    -0.3350     2.8460 ca         1 5T6      -0.112000
     27 C18          4.9580     0.2820     0.4160 ca         1 5T6      -0.064000
     28 N16          4.4830     1.4010    -2.0750 nb         1 5T6      -0.658000
     29 C23          5.9940     0.7410    -0.3760 ca         1 5T6       0.058000
     30 CL           7.6270     0.6230     0.1690 cl         1 5T6      -0.186000
     31 H1          -0.9160    -3.2690     1.7240 h1         1 5T6       0.070700
     32 H2          -2.3830    -3.2290     0.7250 h1         1 5T6       0.070700
     33 H3           1.4260    -0.8280    -0.9680 ha         1 5T6       0.138000
     34 H4          -1.3640     0.3000    -1.6390 ha         1 5T6       0.139000
     35 H5           2.4860     1.1020    -1.7240 h4         1 5T6       0.030100
     36 H6           6.5240     1.6480    -2.2550 h4         1 5T6       0.034100
     37 H7           3.3070     0.5740     2.6240 ha         1 5T6       0.116000
     38 H8          -6.7160     3.0050    -0.1730 h3         1 5T6       0.102700
     39 H9          -5.9580     0.1740     2.0390 hc         1 5T6       0.047033
     40 H10         -4.7170    -0.5000     3.0850 hc         1 5T6       0.047033
     41 H11         -4.9000     1.2440     2.9440 hc         1 5T6       0.047033
     42 H12         -2.9200    -1.4110     1.9630 ha         1 5T6       0.107000
     43 H13         -3.0840     2.0460    -1.5360 ha         1 5T6       0.133000
     44 H14          0.0920    -3.6040    -3.2110 hn         1 5T6       0.493000
     45 H15         -0.2580    -5.0420    -2.3750 hn         1 5T6       0.493000
     46 H16         -0.5480    -1.2370     2.8020 ha         1 5T6       0.110000
     47 H17          1.3660    -0.2040     3.9200 ha         1 5T6       0.116000
     48 H18          5.1640    -0.1680     1.3790 ha         1 5T6       0.135000
@<TRIPOS>BOND
     1     1     8 ar  
     2     1    18 ar  
     3     1    20 1   
     4     2     5 ar  
     5     2    20 1   
     6     2    25 ar  
     7     3    20 1   
     8     3    24 1   
     9     3    31 1   
    10     3    32 1   
    11     4    15 1   
    12     4    16 ar  
    13     4    19 ar  
    14     5     6 ar  
    15     5    33 1   
    16     6     7 1   
    17     6    11 ar  
    18     7     9 ar  
    19     7    27 ar  
    20     8    19 ar  
    21     8    34 1   
    22     9    28 ar  
    23     9    35 1   
    24    10    28 ar  
    25    10    29 ar  
    26    10    36 1   
    27    11    26 ar  
    28    11    37 1   
    29    12    13 1   
    30    13    14 1   
    31    13    15 1   
    32    13    38 1   
    33    16    17 1   
    34    16    18 ar  
    35    17    39 1   
    36    17    40 1   
    37    17    41 1   
    38    18    42 1   
    39    19    43 1   
    40    20    21 1   
    41    21    22 2   
    42    22    23 1   
    43    22    24 1   
    44    23    44 1   
    45    23    45 1   
    46    25    26 ar  
    47    25    46 1   
    48    26    47 1   
    49    27    29 ar  
    50    27    48 1   
    51    29    30 1   
@<TRIPOS>SUBSTRUCTURE
     1 5T6         1 TEMP              0 ****  ****    0 ROOT
