@<TRIPOS>MOLECULE
5T6
   48    51     1     0     0
SMALL
No Charge or Current Charge


@<TRIPOS>ATOM
      1 C4          -2.1590    -0.7740     0.1750 ca         1 5T6      -0.058300
      2 C5           0.3210    -0.9790     0.7520 ca         1 5T6      -0.079300
      3 C7          -1.1480    -3.0140     0.8220 c5         1 5T6       0.131600
      4 C8          -4.4380     0.9360     0.3060 ca         1 5T6       0.089100
      5 C10          1.4750    -0.6190     0.0140 ca         1 5T6      -0.068000
      6 C13          2.5900     0.0160     0.6190 cp         1 5T6      -0.044000
      7 C15          3.8010     0.3820    -0.1830 cp         1 5T6      -0.069000
      8 C17         -2.4290     0.1590    -0.8480 ca         1 5T6      -0.070000
      9 C24          3.6990     0.7860    -1.5430 ca         1 5T6       0.347900
     10 C26          5.9900     1.0820    -1.7500 ca         1 5T6       0.346900
     11 C28          2.5210     0.2980     2.0040 ca         1 5T6      -0.092000
     12 F22         -5.0110     3.6720    -0.7320 f          1 5T6      -0.136000
     13 C14         -5.9650     2.7270    -0.5620 c3         1 5T6       0.387300
     14 F21         -6.1910     2.1590    -1.7700 f          1 5T6      -0.136000
     15 O11         -5.5620     1.7420     0.4160 os         1 5T6      -0.395100
     16 C12         -4.1740     0.0210     1.3480 ca         1 5T6      -0.064300
     17 C30         -5.1030    -0.0630     2.5550 c3         1 5T6      -0.043800
     18 C9          -3.0440    -0.8180     1.2800 ca         1 5T6      -0.110000
     19 C19         -3.5520     1.0000    -0.7920 ca         1 5T6      -0.111000
     20 C1          -0.8950    -1.6580     0.0750 c5         1 5T6       0.221800
     21 N2          -0.6290    -2.1520    -1.3070 n2         1 5T6      -0.736900
     22 C3          -0.2930    -3.3640    -1.1490 c2         1 5T6       0.801500
     23 N20          0.0540    -4.2180    -2.1120 nv         1 5T6      -1.017200
     24 O6          -0.3650    -3.9470     0.0620 os         1 5T6      -0.462600
     25 C27          0.2910    -0.6610     2.1280 ca         1 5T6      -0.097000
     26 C29          1.3810    -0.0330     2.7480 ca         1 5T6      -0.112000
     27 C18          5.1020     0.3420     0.3800 ca         1 5T6      -0.064000
     28 N16          4.7590     1.1310    -2.3160 nb         1 5T6      -0.658000
     29 C23          6.2060     0.6950    -0.4120 ca         1 5T6       0.058000
     30 Cl           7.8340     0.6470     0.2630 cl         1 5T6      -0.186000
     31 H1          -0.8470    -3.0290     1.8760 h1         1 5T6       0.070700
     32 H2          -2.2000    -3.3220     0.7500 h1         1 5T6       0.070700
     33 H3           1.5210    -0.8430    -1.0480 ha         1 5T6       0.138000
     34 H4          -1.7570     0.2350    -1.7000 ha         1 5T6       0.139000
     35 H5           2.7260     0.8500    -2.0280 h4         1 5T6       0.030100
     36 H6           6.8280     1.3610    -2.3870 h4         1 5T6       0.034100
     37 H7           3.3480     0.7980     2.5020 ha         1 5T6       0.116000
     38 H8          -6.8860     3.2230    -0.2380 h3         1 5T6       0.102700
     39 H9          -6.1220    -0.3260     2.2480 hc         1 5T6       0.047033
     40 H10         -4.7720    -0.8190     3.2770 hc         1 5T6       0.047033
     41 H11         -5.1490     0.8980     3.0820 hc         1 5T6       0.047033
     42 H12         -2.8570    -1.4990     2.1050 ha         1 5T6       0.107000
     43 H13         -3.7100     1.6930    -1.6110 ha         1 5T6       0.133000
     44 H14         -0.3220    -3.9270    -3.0040 hn         1 5T6       0.493000
     45 H15         -0.1540    -5.1740    -1.8590 hn         1 5T6       0.493000
     46 H16         -0.5840    -0.8940     2.7290 ha         1 5T6       0.110000
     47 H17          1.3390     0.2030     3.8090 ha         1 5T6       0.116000
     48 H18          5.2570     0.0280     1.4090 ha         1 5T6       0.135000
@<TRIPOS>BOND
     1     1     8 ar  
     2     1    18 ar  
     3     1    20 1   
     4     2     5 ar  
     5     2    20 1   
     6     2    25 ar  
     7     3    20 1   
     8     3    24 1   
     9     3    31 1   
    10     3    32 1   
    11     4    15 1   
    12     4    16 ar  
    13     4    19 ar  
    14     5     6 ar  
    15     5    33 1   
    16     6     7 1   
    17     6    11 ar  
    18     7     9 ar  
    19     7    27 ar  
    20     8    19 ar  
    21     8    34 1   
    22     9    28 ar  
    23     9    35 1   
    24    10    28 ar  
    25    10    29 ar  
    26    10    36 1   
    27    11    26 ar  
    28    11    37 1   
    29    12    13 1   
    30    13    14 1   
    31    13    15 1   
    32    13    38 1   
    33    16    17 1   
    34    16    18 ar  
    35    17    39 1   
    36    17    40 1   
    37    17    41 1   
    38    18    42 1   
    39    19    43 1   
    40    20    21 1   
    41    21    22 2   
    42    22    23 1   
    43    22    24 1   
    44    23    44 1   
    45    23    45 1   
    46    25    26 ar  
    47    25    46 1   
    48    26    47 1   
    49    27    29 ar  
    50    27    48 1   
    51    29    30 1   
@<TRIPOS>SUBSTRUCTURE
     1 5T6         1 TEMP              0 ****  ****    0 ROOT
