@<TRIPOS>MOLECULE
5T7
   44    47     1     0     0
SMALL
bcc


@<TRIPOS>ATOM
      1 C5           4.5260     0.6450    -1.9340 c2         1 5T7       0.819500
      2 C7           1.1850    -0.6470     0.9080 cx         1 5T7      -0.226700
      3 C8           2.1600    -1.0370     1.9910 cx         1 5T7      -0.089400
      4 C10          0.1630     0.3850     1.2200 c          1 5T7       0.711100
      5 N12         -1.0320     0.1670     0.6120 ns         1 5T7      -0.457100
      6 C13          3.1990    -2.1040    -0.7510 c3         1 5T7      -0.098100
      7 C17         -2.2000     0.9120     0.6830 ca         1 5T7       0.042300
      8 C20         -4.6890     2.2580     0.6750 ca         1 5T7      -0.150000
      9 C21         -3.2930     0.4020    -0.0850 ca         1 5T7       0.356600
     10 C22         -4.5330     1.0790    -0.0840 ca         1 5T7      -0.110300
     11 C24         -5.3370    -0.6160    -1.5620 ca         1 5T7      -0.097900
     12 C1           3.5700    -0.7120    -0.2340 c6         1 5T7       0.176200
     13 C2           4.9970    -0.7260     0.3200 c6         1 5T7       0.365600
     14 C3           6.0240    -0.7640    -0.7900 c6         1 5T7       0.095400
     15 O4           5.8080     0.3140    -1.6800 os         1 5T7      -0.450400
     16 N6           3.4870     0.2300    -1.3330 n2         1 5T7      -0.752900
     17 C9           2.6250    -0.2120     0.8510 cx         1 5T7      -0.068700
     18 O11          0.3860     1.3320     1.9560 o          1 5T7      -0.590100
     19 F14          5.2190     0.3980     1.0650 f          1 5T7      -0.226800
     20 F15          5.2070    -1.7780     1.1560 f          1 5T7      -0.226800
     21 N16          4.4560     1.5040    -2.9860 nv         1 5T7      -0.896800
     22 C18         -2.3840     2.0660     1.4120 ca         1 5T7      -0.164000
     23 C19         -3.6280     2.7260     1.3990 ca         1 5T7      -0.083000
     24 C23         -5.5760     0.5270    -0.8580 ca         1 5T7      -0.076000
     25 C25         -4.0660    -1.2240    -1.5040 ca         1 5T7       0.429200
     26 N26         -3.0930    -0.7290    -0.7930 nb         1 5T7      -0.679000
     27 CL2         -6.5630    -1.3450    -2.5300 cl         1 5T7      -0.090400
     28 H1           0.8740    -1.4410     0.2400 hc         1 5T7       0.093700
     29 H2           2.0620    -0.5530     2.9540 hc         1 5T7       0.086700
     30 H3           2.4250    -2.0840     2.0430 hc         1 5T7       0.086700
     31 H4          -1.1130    -0.6500     0.0200 hn         1 5T7       0.348500
     32 H5           3.0840    -2.8460     0.0380 hc         1 5T7       0.050033
     33 H6           2.2610    -2.0440    -1.3010 hc         1 5T7       0.050033
     34 H7           3.9450    -2.4800    -1.4520 hc         1 5T7       0.050033
     35 H8          -5.6410     2.7740     0.6780 ha         1 5T7       0.139000
     36 H9           7.0320    -0.6540    -0.3870 h1         1 5T7       0.082700
     37 H10          5.9740    -1.7150    -1.3250 h1         1 5T7       0.082700
     38 H11          2.7650     0.8380     1.0800 hc         1 5T7       0.114700
     39 H12          3.5920     2.0150    -3.0640 hn         1 5T7       0.430300
     40 H13          5.2770     2.0470    -3.1980 hn         1 5T7       0.430300
     41 H14         -1.5840     2.4780     2.0040 ha         1 5T7       0.172000
     42 H15         -3.7330     3.6290     1.9850 ha         1 5T7       0.136000
     43 H16         -6.5430     1.0130    -0.8810 ha         1 5T7       0.154000
     44 H17         -3.8730    -2.1340    -2.0600 h4         1 5T7       0.033100
@<TRIPOS>BOND
     1     1    15 1   
     2     1    16 2   
     3     1    21 1   
     4     2     3 1   
     5     2     4 1   
     6     2    17 1   
     7     2    28 1   
     8     3    17 1   
     9     3    29 1   
    10     3    30 1   
    11     4     5 1   
    12     4    18 2   
    13     5     7 1   
    14     5    31 1   
    15     6    12 1   
    16     6    32 1   
    17     6    33 1   
    18     6    34 1   
    19     7     9 ar  
    20     7    22 ar  
    21     8    10 ar  
    22     8    23 ar  
    23     8    35 1   
    24     9    10 ar  
    25     9    26 ar  
    26    10    24 ar  
    27    11    24 ar  
    28    11    25 ar  
    29    11    27 1   
    30    12    13 1   
    31    12    16 1   
    32    12    17 1   
    33    13    14 1   
    34    13    19 1   
    35    13    20 1   
    36    14    15 1   
    37    14    36 1   
    38    14    37 1   
    39    17    38 1   
    40    21    39 1   
    41    21    40 1   
    42    22    23 ar  
    43    22    41 1   
    44    23    42 1   
    45    24    43 1   
    46    25    26 ar  
    47    25    44 1   
@<TRIPOS>SUBSTRUCTURE
     1 5T7         1 TEMP              0 ****  ****    0 ROOT
