@<TRIPOS>MOLECULE
5T7
   44    47     1     0     0
SMALL
No Charge or Current Charge


@<TRIPOS>ATOM
      1 C5           2.7850    -0.4740    -2.3710 c2         1 5T7       0.819500
      2 C7           1.3930    -0.9750     1.9810 cx         1 5T7      -0.226700
      3 C8           2.7050    -0.5330     2.6150 cx         1 5T7      -0.089400
      4 C10          0.1120    -0.2550     2.3210 c          1 5T7       0.644100
      5 N12         -0.6600     0.0400     1.2090 ns         1 5T7      -0.131000
      6 C13          3.4470    -2.3890     0.1480 c3         1 5T7      -0.098100
      7 C17         -1.9070     0.7110     1.0470 ca         1 5T7       0.015000
      8 C20         -4.3750     2.0260     0.6420 ca         1 5T7      -0.132000
      9 C21         -2.4910     0.7200    -0.2480 ca         1 5T7       0.226000
     10 C22         -3.7360     1.3850    -0.4330 ca         1 5T7      -0.045000
     11 C24         -3.6800     0.7540    -2.7640 ca         1 5T7       0.059000
     12 C1           3.2070    -0.8480    -0.0280 c6         1 5T7       0.176200
     13 C2           4.5710    -0.0970    -0.2520 c6         1 5T7       0.123000
     14 C3           5.1010    -0.3660    -1.6710 c6         1 5T7       0.118600
     15 O4           4.0630    -0.0880    -2.6370 os         1 5T7      -0.473600
     16 N6           2.3230    -0.7370    -1.2120 n2         1 5T7      -0.752900
     17 C9           2.4250    -0.2160     1.1620 cx         1 5T7      -0.068700
     18 O11         -0.1890     0.0120     3.4790 o          1 5T7      -0.590100
     19 F14          4.4120     1.2970    -0.0990 f          1 5T7      -0.105500
     20 F15          5.5300    -0.4900     0.7020 f          1 5T7      -0.105500
     21 N16          2.0070    -0.2630    -3.4290 nv         1 5T7      -1.007200
     22 C18         -2.5610     1.3660     2.1160 ca         1 5T7      -0.146000
     23 C19         -3.7870     2.0180     1.9130 ca         1 5T7      -0.065000
     24 C23         -4.3350     1.4010    -1.7070 ca         1 5T7      -0.058000
     25 C25         -2.4520     0.1170    -2.5090 ca         1 5T7       0.363900
     26 N26         -1.8670     0.0970    -1.2850 nb         1 5T7      -0.679000
     27 Cl2         -4.3890     0.7450    -4.3780 cl         1 5T7      -0.182000
     28 H1           1.2720    -2.0410     1.8220 hc         1 5T7       0.093700
     29 H2           2.6810     0.2930     3.3230 hc         1 5T7       0.086700
     30 H3           3.4390    -1.2990     2.8510 hc         1 5T7       0.086700
     31 H4          -0.2610    -0.2810     0.3360 hn         1 5T7       0.182000
     32 H5           4.0260    -2.6180     1.0490 hc         1 5T7       0.050033
     33 H6           2.5070    -2.9480     0.2070 hc         1 5T7       0.050033
     34 H7           3.9970    -2.8130    -0.6990 hc         1 5T7       0.050033
     35 H8          -5.3260     2.5340     0.4940 ha         1 5T7       0.121000
     36 H9           5.9760     0.2650    -1.8840 h1         1 5T7       0.082700
     37 H10          5.4100    -1.4160    -1.7670 h1         1 5T7       0.082700
     38 H11          2.1800     0.8250     0.9560 hc         1 5T7       0.114700
     39 H12          1.0690    -0.0490    -3.1250 hn         1 5T7       0.485500
     40 H13          2.4160     0.4200    -4.0490 hn         1 5T7       0.485500
     41 H14         -2.1330     1.3890     3.1130 ha         1 5T7       0.154000
     42 H15         -4.2810     2.5190     2.7430 ha         1 5T7       0.118000
     43 H16         -5.2850     1.9020    -1.8750 ha         1 5T7       0.136000
     44 H17         -1.9190    -0.3950    -3.3090 h4         1 5T7       0.033100
@<TRIPOS>BOND
     1     1    15 1   
     2     1    16 2   
     3     1    21 1   
     4     2     3 1   
     5     2     4 1   
     6     2    17 1   
     7     2    28 1   
     8     3    17 1   
     9     3    29 1   
    10     3    30 1   
    11     4     5 1   
    12     4    18 2   
    13     5     7 1   
    14     5    31 1   
    15     6    12 1   
    16     6    32 1   
    17     6    33 1   
    18     6    34 1   
    19     7     9 ar  
    20     7    22 ar  
    21     8    10 ar  
    22     8    23 ar  
    23     8    35 1   
    24     9    10 ar  
    25     9    26 ar  
    26    10    24 ar  
    27    11    24 ar  
    28    11    25 ar  
    29    11    27 1   
    30    12    13 1   
    31    12    16 1   
    32    12    17 1   
    33    13    14 1   
    34    13    19 1   
    35    13    20 1   
    36    14    15 1   
    37    14    36 1   
    38    14    37 1   
    39    17    38 1   
    40    21    39 1   
    41    21    40 1   
    42    22    23 ar  
    43    22    41 1   
    44    23    42 1   
    45    24    43 1   
    46    25    26 ar  
    47    25    44 1   
@<TRIPOS>SUBSTRUCTURE
     1 5T7         1 TEMP              0 ****  ****    0 ROOT
