@<TRIPOS>MOLECULE
5T8
   45    48     1     0     0
SMALL
No Charge or Current Charge


@<TRIPOS>ATOM
      1 C4           5.9470     2.1950     0.5440 c6         1 5T8       0.061300
      2 C6           5.2840    -0.0640     1.0390 c6         1 5T8       0.124600
      3 C7           2.0480    -3.0140     0.8550 ca         1 5T8      -0.087000
      4 C8           0.7790    -2.4450     0.6730 ca         1 5T8      -0.156000
      5 C10          1.8140    -0.3960    -0.1170 ca         1 5T8      -0.132000
      6 C13          5.1960    -0.9030    -1.3770 c3         1 5T8      -0.078100
      7 C17         -2.0930    -2.2900    -0.7940 ca         1 5T8      -0.201000
      8 C20         -3.0230    -0.1810     0.0660 ca         1 5T8       0.213000
      9 C21         -4.3250    -0.6940    -0.1890 ca         1 5T8      -0.031000
     10 C22         -5.4550     0.0960     0.0960 ca         1 5T8      -0.066000
     11 C24         -3.9470     1.8300     0.8480 ca         1 5T8       0.353900
     12 C1           4.4050    -0.1550    -0.2610 c6         1 5T8       0.180500
     13 N2           4.1040     1.1930    -0.8340 n2         1 5T8      -0.685900
     14 C3           4.7950     2.2100    -0.4840 c2         1 5T8       0.594200
     15 O5           6.3890     0.8480     0.8520 os         1 5T8      -0.435000
     16 C9           0.6570    -1.1380     0.1720 ca         1 5T8       0.305000
     17 C11          3.1070    -0.9530     0.0560 ca         1 5T8      -0.038300
     18 C12          3.2010    -2.2750     0.5460 ca         1 5T8      -0.141000
     19 N14          4.5020     3.4270    -1.0270 nv         1 5T8      -1.034200
     20 N15         -0.5920    -0.5380    -0.0000 nu         1 5T8      -0.973000
     21 C16         -1.8980    -1.0160    -0.2290 ca         1 5T8       0.369000
     22 C18         -3.3870    -2.7750    -1.0370 ca         1 5T8      -0.048000
     23 C19         -4.5000    -1.9820    -0.7290 ca         1 5T8      -0.154000
     24 C23         -5.2610     1.3800     0.6250 ca         1 5T8       0.064000
     25 N25         -2.8500     1.0780     0.5780 nb         1 5T8      -0.669000
     26 Cl2         -6.6460     2.4070     0.9960 cl         1 5T8      -0.186000
     27 H1           6.8040     2.7690     0.1670 h1         1 5T8       0.060700
     28 H2           5.6020     2.6730     1.4720 h1         1 5T8       0.060700
     29 H3           4.6680     0.2890     1.8800 h1         1 5T8       0.060200
     30 H4           5.6800    -1.0530     1.3070 h1         1 5T8       0.060200
     31 H6          -0.1030    -3.0150     0.9440 ha         1 5T8       0.122000
     32 H7           1.6940     0.6160    -0.4870 ha         1 5T8       0.137000
     33 H8           5.5180    -1.8990    -1.0520 hc         1 5T8       0.043700
     34 H9           4.5830    -1.0340    -2.2770 hc         1 5T8       0.043700
     35 H10          6.0990    -0.3540    -1.6700 hc         1 5T8       0.043700
     36 H11         -1.2420    -2.9050    -1.0660 ha         1 5T8       0.128000
     37 H12         -6.4600    -0.2740    -0.0890 ha         1 5T8       0.134000
     38 H13         -3.7640     2.8240     1.2550 h4         1 5T8       0.033100
     39 H14          4.1720    -2.7390     0.6990 ha         1 5T8       0.112000
     40 H15          3.9180     3.3450    -1.8520 hn         1 5T8       0.471500
     41 H16          5.2910     4.0560    -1.1280 hn         1 5T8       0.471500
     42 H17         -0.5970     0.4730     0.1550 hn         1 5T8       0.521000
     43 H18         -3.5260    -3.7640    -1.4710 ha         1 5T8       0.113000
     44 H19         -5.5000    -2.3660    -0.9220 ha         1 5T8       0.120000
     45 H5           2.1390    -4.0260     1.2440 ha         1 5T8       0.111000
@<TRIPOS>BOND
     1     1    14 1   
     2     1    15 1   
     3     1    27 1   
     4     1    28 1   
     5     2    12 1   
     6     2    15 1   
     7     2    29 1   
     8     2    30 1   
     9     3     4 ar  
    10     3    18 ar  
    11     3    45 1   
    12     4    16 ar  
    13     4    31 1   
    14     5    16 ar  
    15     5    17 ar  
    16     5    32 1   
    17     6    12 1   
    18     6    33 1   
    19     6    34 1   
    20     6    35 1   
    21     7    21 ar  
    22     7    22 ar  
    23     7    36 1   
    24     8     9 ar  
    25     8    21 ar  
    26     8    25 ar  
    27     9    10 ar  
    28     9    23 ar  
    29    10    24 ar  
    30    10    37 1   
    31    11    24 ar  
    32    11    25 ar  
    33    11    38 1   
    34    12    13 1   
    35    12    17 1   
    36    13    14 2   
    37    14    19 1   
    38    16    20 1   
    39    17    18 ar  
    40    18    39 1   
    41    19    40 1   
    42    19    41 1   
    43    20    21 1   
    44    20    42 1   
    45    22    23 ar  
    46    22    43 1   
    47    23    44 1   
    48    24    26 1   
@<TRIPOS>SUBSTRUCTURE
     1 5T8         1 TEMP              0 ****  ****    0 ROOT
