@<TRIPOS>MOLECULE
5T8
   45    48     1     0     0
SMALL
bcc


@<TRIPOS>ATOM
      1 C4           5.6570     2.1910     0.5300 c6         1 5T8       0.038100
      2 C6           5.0780     0.0080     1.0330 c6         1 5T8       0.101400
      3 C7           2.0820    -3.0840     0.7140 ca         1 5T8      -0.105000
      4 C8           0.8170    -2.5240     0.6110 ca         1 5T8      -0.174000
      5 C10          1.8400    -0.4730    -0.1290 ca         1 5T8      -0.150000
      6 C13          5.2540    -0.9410    -1.2990 c3         1 5T8      -0.078100
      7 C17         -2.0300    -2.3160    -0.7050 ca         1 5T8      -0.219000
      8 C20         -2.8920    -0.1970     0.0680 ca         1 5T8       0.343600
      9 C21         -4.2080    -0.6450    -0.1920 ca         1 5T8      -0.096300
     10 C22         -5.2620     0.2540     0.0790 ca         1 5T8      -0.084000
     11 C24         -3.6190     1.8550     0.7850 ca         1 5T8       0.419200
     12 C1           4.3540    -0.2030    -0.3010 c6         1 5T8       0.180500
     13 N2           3.9780     1.0660    -0.8940 n2         1 5T8      -0.685900
     14 C3           4.5580     2.1300    -0.5060 c2         1 5T8       0.594200
     15 O5           6.1370     0.9210     0.8670 os         1 5T8      -0.388600
     16 C9           0.6880    -1.2060     0.1760 ca         1 5T8       0.166600
     17 C11          3.1050    -1.0270    -0.0140 ca         1 5T8      -0.038300
     18 C12          3.2190    -2.3540     0.4060 ca         1 5T8      -0.159000
     19 N14          4.1660     3.3480    -0.9700 nv         1 5T8      -0.923800
     20 N15         -0.5350    -0.5510     0.0840 nu         1 5T8      -0.641000
     21 C16         -1.7750    -1.0620    -0.1810 ca         1 5T8       0.165300
     22 C18         -3.3460    -2.7420    -0.9540 ca         1 5T8      -0.066000
     23 C19         -4.4270    -1.9410    -0.7030 ca         1 5T8      -0.172000
     24 C23         -4.9640     1.4920     0.5660 ca         1 5T8      -0.092900
     25 N25         -2.6340     1.0380     0.5440 nb         1 5T8      -0.669000
     26 CL2         -6.2040     2.6370     0.9230 cl         1 5T8      -0.094400
     27 H1           6.4960     2.7720     0.1420 h1         1 5T8       0.060700
     28 H2           5.2730     2.7250     1.4120 h1         1 5T8       0.060700
     29 H3           4.3670     0.3720     1.7890 h1         1 5T8       0.060200
     30 H4           5.5080    -0.9230     1.4040 h1         1 5T8       0.060200
     31 H6          -0.0480    -3.1060     0.8990 ha         1 5T8       0.140000
     32 H7           1.7410     0.5510    -0.4680 ha         1 5T8       0.155000
     33 H8           5.5480    -1.9250    -0.9340 hc         1 5T8       0.043700
     34 H9           4.7330    -1.0750    -2.2480 hc         1 5T8       0.043700
     35 H10          6.1630    -0.3700    -1.4910 hc         1 5T8       0.043700
     36 H11         -1.2180    -2.9850    -0.9510 ha         1 5T8       0.146000
     37 H12         -6.2860    -0.0490    -0.1020 ha         1 5T8       0.152000
     38 H13         -3.3780     2.8410     1.1670 h4         1 5T8       0.033100
     39 H14          4.1880    -2.8270     0.5030 ha         1 5T8       0.130000
     40 H15          3.5520     3.3500    -1.7690 hn         1 5T8       0.416300
     41 H16          4.8240     4.1090    -0.9480 hn         1 5T8       0.416300
     42 H17         -0.5200     0.4460     0.2380 hn         1 5T8       0.465800
     43 H18         -3.4950    -3.7330    -1.3630 ha         1 5T8       0.131000
     44 H19         -5.4360    -2.2810    -0.8950 ha         1 5T8       0.138000
     45 H5           2.1790    -4.1070     1.0540 ha         1 5T8       0.129000
@<TRIPOS>BOND
     1     1    14 1   
     2     1    15 1   
     3     1    27 1   
     4     1    28 1   
     5     2    12 1   
     6     2    15 1   
     7     2    29 1   
     8     2    30 1   
     9     3     4 ar  
    10     3    18 ar  
    11     3    45 1   
    12     4    16 ar  
    13     4    31 1   
    14     5    16 ar  
    15     5    17 ar  
    16     5    32 1   
    17     6    12 1   
    18     6    33 1   
    19     6    34 1   
    20     6    35 1   
    21     7    21 ar  
    22     7    22 ar  
    23     7    36 1   
    24     8     9 ar  
    25     8    21 ar  
    26     8    25 ar  
    27     9    10 ar  
    28     9    23 ar  
    29    10    24 ar  
    30    10    37 1   
    31    11    24 ar  
    32    11    25 ar  
    33    11    38 1   
    34    12    13 1   
    35    12    17 1   
    36    13    14 2   
    37    14    19 1   
    38    16    20 1   
    39    17    18 ar  
    40    18    39 1   
    41    19    40 1   
    42    19    41 1   
    43    20    21 1   
    44    20    42 1   
    45    22    23 ar  
    46    22    43 1   
    47    23    44 1   
    48    24    26 1   
@<TRIPOS>SUBSTRUCTURE
     1 5T8         1 TEMP              0 ****  ****    0 ROOT
