@<TRIPOS>MOLECULE
5T9
   67    71     1     0     0
SMALL
bcc


@<TRIPOS>ATOM
      1 N1           1.3790     0.9180    -1.0650 n          1 5T9      -0.474800
      2 C2          -0.0060     1.1080    -0.6500 c5         1 5T9       0.139000
      3 C3           0.0730     2.1460     0.4630 c5         1 5T9      -0.172900
      4 C4           1.3710     2.8980     0.1910 c5         1 5T9      -0.038400
      5 C5           2.2990     1.8270    -0.3880 c5         1 5T9       0.033700
      6 C6           3.0590     1.0700     0.7030 c          1 5T9       0.665100
      7 S7          -1.4750     3.2370     0.8020 s6         1 5T9       0.232100
      8 N8           4.3560     0.8400     0.4260 ns         1 5T9      -0.521900
      9 O9           2.5250     0.7370     1.7460 o          1 5T9      -0.597100
     10 C10          5.2020     0.1070     1.2970 cx         1 5T9      -0.015900
     11 C11          5.0840    -1.3660     1.2840 c2         1 5T9       0.447200
     12 N12          4.2870    -1.9850     0.5250 n2         1 5T9      -0.740100
     13 C13          6.5900     0.6600     1.5240 cx         1 5T9      -0.109900
     14 C14          5.5830     0.7410     2.6110 cx         1 5T9      -0.109900
     15 O15         -3.0470     4.2040     0.8200 oh         1 5T9      -0.566700
     16 O16         -1.3720     3.9690    -0.6650 oh         1 5T9      -0.566700
     17 C17         -2.4630     1.7440     0.9060 ca         1 5T9      -0.060500
     18 C18         -3.2610     1.1990    -0.0950 ca         1 5T9       0.128400
     19 C19         -3.9220     0.0030     0.1000 ca         1 5T9      -0.173000
     20 C20         -3.8180    -0.6720     1.3170 ca         1 5T9       0.184100
     21 C21         -3.0420    -0.1250     2.3340 ca         1 5T9      -0.224000
     22 C22         -2.3750     1.0700     2.1150 ca         1 5T9      -0.028000
     23 CL2         -3.4460     1.9710    -1.6300 cl         1 5T9      -0.073400
     24 O24         -4.4960    -1.8230     1.4110 os         1 5T9      -0.308900
     25 C25         -4.4860    -2.5120     2.6490 c3         1 5T9       0.119700
     26 C26          1.8280     0.0500    -1.9960 c          1 5T9       0.701100
     27 C27          0.7940    -0.9180    -2.5620 cy         1 5T9      -0.222300
     28 O28          2.9980     0.0330    -2.3420 o          1 5T9      -0.599100
     29 C29         -0.1860    -0.2330    -3.5510 cy         1 5T9       0.154800
     30 N30          0.6380    -0.6960    -4.6730 n6         1 5T9      -0.782200
     31 C31          1.3050    -1.6750    -3.8090 cy         1 5T9       0.154800
     32 C32          0.2410    -1.8080    -1.4790 ca         1 5T9       0.423600
     33 N33         -1.0340    -2.1700    -1.5570 nb         1 5T9      -0.673000
     34 C34         -1.5400    -2.9770    -0.6380 ca         1 5T9       0.415200
     35 C35         -0.7770    -3.4750     0.4050 ca         1 5T9      -0.100900
     36 C36          0.5570    -3.1180     0.4990 ca         1 5T9      -0.083000
     37 C37          1.0750    -2.2670    -0.4610 ca         1 5T9      -0.215300
     38 CL3         -1.4870    -4.5380     1.5650 cl         1 5T9      -0.104400
     39 H39         -0.6050     1.4490    -1.5000 h1         1 5T9       0.042700
     40 H40         -0.4600     0.1890    -0.2850 h1         1 5T9       0.042700
     41 H41          0.1750     1.6290     1.4180 h1         1 5T9       0.095700
     42 H42          1.2530     3.6780    -0.5650 hc         1 5T9       0.047200
     43 H43          1.7770     3.3760     1.0810 hc         1 5T9       0.047200
     44 H44          2.9950     2.2640    -1.1060 h1         1 5T9       0.075700
     45 H45          4.6710     0.9930    -0.5200 hn         1 5T9       0.337500
     46 H1           5.7570    -1.8690     1.9850 h4         1 5T9      -0.038200
     47 H2           4.3690    -2.9860     0.6730 hn         1 5T9       0.374400
     48 H46          7.4030    -0.0490     1.6120 hc         1 5T9       0.081450
     49 H47          6.8400     1.5670     0.9880 hc         1 5T9       0.081450
     50 H48          5.1400     1.7030     2.8290 hc         1 5T9       0.081450
     51 H49          5.6840     0.0880     3.4680 hc         1 5T9       0.081450
     52 H3          -3.2850     4.2020     1.7550 ho         1 5T9       0.418500
     53 H4          -0.6930     3.5490    -1.2100 ho         1 5T9       0.418500
     54 H50         -4.5300    -0.4160    -0.6920 ha         1 5T9       0.165000
     55 H51         -2.9440    -0.6030     3.2990 ha         1 5T9       0.145000
     56 H52         -1.7760     1.4810     2.9190 ha         1 5T9       0.138000
     57 H5          -5.0960    -3.4000     2.5100 h1         1 5T9       0.047700
     58 H6          -3.4780    -2.8190     2.9360 h1         1 5T9       0.047700
     59 H7          -4.9160    -1.9070     3.4510 h1         1 5T9       0.047700
     60 H56         -1.1840    -0.6700    -3.4940 h1         1 5T9       0.064450
     61 H57         -0.2780     0.8540    -3.4820 h1         1 5T9       0.064450
     62 H58          0.1100    -1.1070    -5.4310 hn         1 5T9       0.353800
     63 H59          2.3870    -1.7440    -3.9260 h1         1 5T9       0.064450
     64 H60          0.8810    -2.6820    -3.8600 h1         1 5T9       0.064450
     65 H61         -2.5880    -3.2390    -0.7320 h4         1 5T9       0.036100
     66 H62          1.1800    -3.4910     1.3010 ha         1 5T9       0.153000
     67 H63          2.1170    -1.9710    -0.3970 ha         1 5T9       0.187000
@<TRIPOS>BOND
     1     1     2 1   
     2     1     5 1   
     3     1    26 1   
     4     2     3 1   
     5     2    39 1   
     6     2    40 1   
     7     3     4 1   
     8     3     7 1   
     9     3    41 1   
    10     4     5 1   
    11     4    42 1   
    12     4    43 1   
    13     5     6 1   
    14     5    44 1   
    15     6     8 1   
    16     6     9 2   
    17     7    15 1   
    18     7    16 1   
    19     7    17 1   
    20     8    10 1   
    21     8    45 1   
    22    10    11 1   
    23    10    13 1   
    24    10    14 1   
    25    11    12 2   
    26    11    46 1   
    27    12    47 1   
    28    13    14 1   
    29    13    48 1   
    30    13    49 1   
    31    14    50 1   
    32    14    51 1   
    33    15    52 1   
    34    16    53 1   
    35    17    18 ar  
    36    17    22 ar  
    37    18    19 ar  
    38    18    23 1   
    39    19    20 ar  
    40    19    54 1   
    41    20    21 ar  
    42    20    24 1   
    43    21    22 ar  
    44    21    55 1   
    45    22    56 1   
    46    24    25 1   
    47    25    57 1   
    48    25    58 1   
    49    25    59 1   
    50    26    27 1   
    51    26    28 2   
    52    27    29 1   
    53    27    31 1   
    54    27    32 1   
    55    29    30 1   
    56    29    60 1   
    57    29    61 1   
    58    30    31 1   
    59    30    62 1   
    60    31    63 1   
    61    31    64 1   
    62    32    33 ar  
    63    32    37 ar  
    64    33    34 ar  
    65    34    35 ar  
    66    34    65 1   
    67    35    36 ar  
    68    35    38 1   
    69    36    37 ar  
    70    36    66 1   
    71    37    67 1   
@<TRIPOS>SUBSTRUCTURE
     1 5T9         1 TEMP              0 ****  ****    0 ROOT
