@<TRIPOS>MOLECULE
5T9
   67    71     1     0     0
SMALL
No Charge or Current Charge


@<TRIPOS>ATOM
      1 N1           1.2690     0.6180    -1.6170 n          1 5T9      -0.407800
      2 C2          -0.0970     1.0200    -1.1770 c5         1 5T9       0.139000
      3 C3           0.2180     1.9330     0.0700 c5         1 5T9      -0.283700
      4 C4           1.6320     2.5210    -0.2550 c5         1 5T9      -0.038400
      5 C5           2.3570     1.2690    -0.8200 c5         1 5T9       0.033700
      6 C6           2.9000     0.3810     0.3480 c          1 5T9       0.598100
      7 S7          -1.0120     3.3490     0.6670 s6         1 5T9       0.342900
      8 N8           4.0410     0.9570     0.8740 ns         1 5T9      -0.454900
      9 O9           2.4400    -0.6810     0.7540 o          1 5T9      -0.597100
     10 C10          4.8030     0.4050     1.9740 cx         1 5T9      -0.015900
     11 C11          5.5110    -0.8800     1.6350 c2         1 5T9       0.447200
     12 N12          6.5960    -0.8940     0.9430 n2         1 5T9      -0.740100
     13 C13          5.4460     1.3930     2.9240 cx         1 5T9      -0.109900
     14 C14          4.2390     0.6030     3.3640 cx         1 5T9      -0.109900
     15 O15         -2.4690     3.6230     0.0170 oh         1 5T9      -0.605700
     16 O16         -0.7630     3.6980    -0.8950 oh         1 5T9      -0.605700
     17 C17         -1.7810     1.7380     1.2820 ca         1 5T9      -0.060500
     18 C18         -2.7140     0.8770     0.6090 ca         1 5T9       0.220000
     19 C19         -3.2120    -0.2640     1.2590 ca         1 5T9      -0.155000
     20 C20         -2.8290    -0.5850     2.5640 ca         1 5T9       0.184100
     21 C21         -1.9410     0.2610     3.2480 ca         1 5T9      -0.206000
     22 C22         -1.4390     1.4100     2.6150 ca         1 5T9      -0.010000
     23 Cl2         -3.3120     1.1080    -1.0480 cl         1 5T9      -0.165000
     24 O24         -3.3580    -1.7260     3.1310 os         1 5T9      -0.332100
     25 C25         -3.0060    -2.1600     4.4560 c3         1 5T9       0.142900
     26 C26          1.5740    -0.4120    -2.5620 c          1 5T9       0.634100
     27 C27          0.3150    -1.1330    -3.2340 cy         1 5T9      -0.222300
     28 O28          2.7720    -0.6680    -2.6660 o          1 5T9      -0.599100
     29 C29         -0.0540     0.0030    -4.2580 cy         1 5T9       0.154800
     30 N30          1.0040    -0.5520    -5.1690 n6         1 5T9      -0.837400
     31 C31          1.0370    -1.8580    -4.4240 cy         1 5T9       0.154800
     32 C32         -0.6340    -1.8720    -2.3230 ca         1 5T9       0.358300
     33 N33         -1.9580    -1.7270    -2.5510 nb         1 5T9      -0.673000
     34 C34         -2.8230    -2.3830    -1.7370 ca         1 5T9       0.349900
     35 C35         -2.4050    -3.1970    -0.6650 ca         1 5T9       0.056000
     36 C36         -1.0300    -3.3440    -0.4270 ca         1 5T9      -0.065000
     37 C37         -0.1330    -2.6720    -1.2760 ca         1 5T9      -0.132000
     38 Cl3         -3.5780    -4.0210     0.3590 cl         1 5T9      -0.196000
     39 H39         -0.6330     1.5210    -1.9910 h1         1 5T9       0.042700
     40 H40         -0.6800     0.1500    -0.8620 h1         1 5T9       0.042700
     41 H41          0.3970     1.2740     0.9300 h1         1 5T9       0.095700
     42 H42          1.6340     3.3090    -1.0170 hc         1 5T9       0.047200
     43 H43          2.1250     2.9400     0.6300 hc         1 5T9       0.047200
     44 H44          3.2050     1.5610    -1.4540 h1         1 5T9       0.075700
     45 H45          4.3540     1.8180     0.4410 hn         1 5T9       0.337500
     46 H1           5.0780    -1.8090     1.9950 h4         1 5T9      -0.038200
     47 H2           6.9060    -1.8700     0.8310 hn         1 5T9       0.374400
     48 H46          6.4080     1.1310     3.3570 hc         1 5T9       0.081450
     49 H47          5.3110     2.4550     2.7300 hc         1 5T9       0.081450
     50 H48          3.2930     1.1310     3.4610 hc         1 5T9       0.081450
     51 H49          4.3910    -0.1890     4.0940 hc         1 5T9       0.081450
     52 H3          -2.5200     3.0510    -0.7670 ho         1 5T9       0.457500
     53 H4          -0.5290     2.8490    -1.3050 ho         1 5T9       0.457500
     54 H50         -3.9140    -0.9110     0.7420 ha         1 5T9       0.147000
     55 H51         -1.6310     0.0520     4.2670 ha         1 5T9       0.127000
     56 H52         -0.7590     2.0560     3.1680 ha         1 5T9       0.120000
     57 H5          -3.5300    -3.0910     4.7030 h1         1 5T9       0.047700
     58 H6          -1.9270    -2.3470     4.5320 h1         1 5T9       0.047700
     59 H7          -3.2860    -1.4040     5.2020 h1         1 5T9       0.047700
     60 H56         -1.0780    -0.1010    -4.6400 h1         1 5T9       0.064450
     61 H57          0.0950     1.0410    -3.9390 h1         1 5T9       0.064450
     62 H58          0.7980    -0.5950    -6.1760 hn         1 5T9       0.409000
     63 H59          2.0200    -2.3050    -4.2260 h1         1 5T9       0.064450
     64 H60          0.4000    -2.6370    -4.8640 h1         1 5T9       0.064450
     65 H61         -3.8830    -2.2470    -1.9470 h4         1 5T9       0.036100
     66 H62         -0.6700    -3.9640     0.3910 ha         1 5T9       0.135000
     67 H63          0.9390    -2.7650    -1.1200 ha         1 5T9       0.169000
@<TRIPOS>BOND
     1     1     2 1   
     2     1     5 1   
     3     1    26 1   
     4     2     3 1   
     5     2    39 1   
     6     2    40 1   
     7     3     4 1   
     8     3     7 1   
     9     3    41 1   
    10     4     5 1   
    11     4    42 1   
    12     4    43 1   
    13     5     6 1   
    14     5    44 1   
    15     6     8 1   
    16     6     9 2   
    17     7    15 1   
    18     7    16 1   
    19     7    17 1   
    20     8    10 1   
    21     8    45 1   
    22    10    11 1   
    23    10    13 1   
    24    10    14 1   
    25    11    12 2   
    26    11    46 1   
    27    12    47 1   
    28    13    14 1   
    29    13    48 1   
    30    13    49 1   
    31    14    50 1   
    32    14    51 1   
    33    15    52 1   
    34    16    53 1   
    35    17    18 ar  
    36    17    22 ar  
    37    18    19 ar  
    38    18    23 1   
    39    19    20 ar  
    40    19    54 1   
    41    20    21 ar  
    42    20    24 1   
    43    21    22 ar  
    44    21    55 1   
    45    22    56 1   
    46    24    25 1   
    47    25    57 1   
    48    25    58 1   
    49    25    59 1   
    50    26    27 1   
    51    26    28 2   
    52    27    29 1   
    53    27    31 1   
    54    27    32 1   
    55    29    30 1   
    56    29    60 1   
    57    29    61 1   
    58    30    31 1   
    59    30    62 1   
    60    31    63 1   
    61    31    64 1   
    62    32    33 ar  
    63    32    37 ar  
    64    33    34 ar  
    65    34    35 ar  
    66    34    65 1   
    67    35    36 ar  
    68    35    38 1   
    69    36    37 ar  
    70    36    66 1   
    71    37    67 1   
@<TRIPOS>SUBSTRUCTURE
     1 5T9         1 TEMP              0 ****  ****    0 ROOT
