@<TRIPOS>MOLECULE
5TA
   51    54     1     0     0
SMALL
bcc


@<TRIPOS>ATOM
      1 C1           1.0150    -1.0040     1.8250 c          1 5TA       0.840600
      2 C4          -4.7060    -0.1490    -0.3610 cg         1 5TA      -0.102000
      3 C5          -3.8630    -0.9910    -0.1710 ch         1 5TA      -0.077000
      4 C6          -0.5840    -2.4880     0.6890 ca         1 5TA       0.086600
      5 C7          -5.4450     2.2030    -0.3880 ca         1 5TA       0.524300
      6 C8           2.9860    -2.0290     1.3220 c5         1 5TA       0.132100
      7 C9           1.8510    -2.9830     0.9560 c5         1 5TA       0.066000
      8 C10         -5.6950     0.8380    -0.5850 ca         1 5TA      -0.069300
      9 C13         -1.5880    -1.5500     0.4640 ca         1 5TA      -0.118000
     10 C17          3.6610    -1.4660     0.0920 c3         1 5TA       0.123400
     11 C18          5.3550     0.1150    -0.4200 ca         1 5TA       0.135100
     12 C19          6.2940     1.0270     0.0620 ca         1 5TA      -0.134000
     13 C20          7.0880     1.7540    -0.8110 ca         1 5TA      -0.051300
     14 C22         -0.8540    -3.8400     0.4720 ca         1 5TA      -0.169000
     15 C23         -2.1140    -4.2450     0.0570 ca         1 5TA      -0.107000
     16 C24          6.0060     0.6570    -2.6610 ca         1 5TA      -0.093000
     17 C25         -7.5380     2.8150    -0.9970 ca         1 5TA       0.423200
     18 C26          8.0850     2.7670    -0.3040 c3         1 5TA       0.195100
     19 C27         -6.9790     0.5030    -1.0180 ca         1 5TA      -0.069000
     20 C28         -3.1230    -3.3230    -0.1510 ca         1 5TA      -0.126000
     21 N12         -6.3200     3.1530    -0.5830 nb         1 5TA      -0.662000
     22 C31         -7.9130     1.5020    -1.2270 ca         1 5TA      -0.250300
     23 C14         -2.8540    -1.9670     0.0530 ca         1 5TA       0.050000
     24 N2           0.7040    -2.1070     1.0810 n          1 5TA      -0.422000
     25 O3           2.3340    -0.9850     2.0520 os         1 5TA      -0.367900
     26 O11          0.2790    -0.1530     2.2500 o          1 5TA      -0.578500
     27 O15          4.6350    -0.5430     0.5170 os         1 5TA      -0.308900
     28 C29          5.2050    -0.0750    -1.7900 ca         1 5TA      -0.217000
     29 C30          6.9410     1.5590    -2.1860 ca         1 5TA      -0.165000
     30 N21          8.5200     2.4970     1.0530 n8         1 5TA      -0.886800
     31 H1           3.7170    -2.4960     1.9810 h1         1 5TA       0.100700
     32 H2           1.9440    -3.3740    -0.0580 h1         1 5TA       0.066700
     33 H3           1.7940    -3.8260     1.6480 h1         1 5TA       0.066700
     34 H4          -1.4040    -0.4940     0.5900 ha         1 5TA       0.170000
     35 H5           4.1130    -2.2970    -0.4610 h1         1 5TA       0.046200
     36 H6           2.9210    -0.9910    -0.5650 h1         1 5TA       0.046200
     37 H7           6.4050     1.1620     1.1310 ha         1 5TA       0.167000
     38 H8          -0.0900    -4.5900     0.6270 ha         1 5TA       0.131000
     39 H9          -2.3040    -5.2970    -0.1020 ha         1 5TA       0.135000
     40 H10          5.8960     0.5060    -3.7270 ha         1 5TA       0.128000
     41 H11         -8.2360     3.6280    -1.1500 h4         1 5TA       0.028100
     42 H12          8.9060     2.8320    -1.0300 h1         1 5TA       0.037200
     43 H13          7.6060     3.7510    -0.3120 h1         1 5TA       0.037200
     44 H14         -7.2300    -0.5350    -1.1850 ha         1 5TA       0.147000
     45 H15         -4.1050    -3.6400    -0.4730 ha         1 5TA       0.141000
     46 H16         -8.9130     1.2680    -1.5630 ha         1 5TA       0.149000
     47 H17          4.4910    -0.7790    -2.1970 ha         1 5TA       0.131000
     48 H18          7.5620     2.1120    -2.8800 ha         1 5TA       0.130000
     49 H19          9.1110     1.6750     1.0630 hn         1 5TA       0.342300
     50 H20          9.1000     3.2610     1.3740 hn         1 5TA       0.342300
     51 CL1         -3.8750     2.6940     0.1480 cl         1 5TA      -0.146000
@<TRIPOS>BOND
     1     1    24 1   
     2     1    25 1   
     3     1    26 2   
     4     2     3 3   
     5     2     8 1   
     6     3    23 1   
     7     4     9 ar  
     8     4    14 ar  
     9     4    24 1   
    10     5     8 ar  
    11     5    21 ar  
    12     5    51 1   
    13     6     7 1   
    14     6    10 1   
    15     6    25 1   
    16     6    31 1   
    17     7    24 1   
    18     7    32 1   
    19     7    33 1   
    20     8    19 ar  
    21     9    23 ar  
    22     9    34 1   
    23    10    27 1   
    24    10    35 1   
    25    10    36 1   
    26    11    12 ar  
    27    11    27 1   
    28    11    28 ar  
    29    12    13 ar  
    30    12    37 1   
    31    13    18 1   
    32    13    29 ar  
    33    14    15 ar  
    34    14    38 1   
    35    15    20 ar  
    36    15    39 1   
    37    16    28 ar  
    38    16    29 ar  
    39    16    40 1   
    40    17    21 ar  
    41    17    22 ar  
    42    17    41 1   
    43    18    30 1   
    44    18    42 1   
    45    18    43 1   
    46    19    22 ar  
    47    19    44 1   
    48    20    23 ar  
    49    20    45 1   
    50    22    46 1   
    51    28    47 1   
    52    29    48 1   
    53    30    49 1   
    54    30    50 1   
@<TRIPOS>SUBSTRUCTURE
     1 5TA         1 TEMP              0 ****  ****    0 ROOT
