@<TRIPOS>MOLECULE
5TA
   51    54     1     0     0
SMALL
No Charge or Current Charge


@<TRIPOS>ATOM
      1 C1           0.9320    -1.1170     1.9410 c          1 5TA       0.698100
      2 C4          -4.7910    -0.2200    -0.4580 cg         1 5TA      -0.102000
      3 C5          -3.9590    -1.0780    -0.2150 ch         1 5TA      -0.077000
      4 C6          -0.6600    -2.6320     0.6710 ca         1 5TA      -0.006000
      5 C7          -5.4290     2.1830    -0.6820 ca         1 5TA       0.459000
      6 C8           2.9440    -2.0640     1.3450 c5         1 5TA       0.155300
      7 C9           1.8320    -3.0810     0.9600 c5         1 5TA       0.066000
      8 C10         -5.7580     0.8060    -0.7390 ca         1 5TA      -0.004000
      9 C13         -1.6650    -1.6710     0.4210 ca         1 5TA      -0.100000
     10 C17          3.5620    -1.3540     0.1130 c3         1 5TA       0.146600
     11 C18          5.3720     0.2740    -0.2990 ca         1 5TA       0.135100
     12 C19          6.3860     1.0800     0.2440 ca         1 5TA      -0.116000
     13 C20          7.1820     1.8940    -0.5860 ca         1 5TA      -0.051300
     14 C22         -1.0270    -3.9950     0.6750 ca         1 5TA      -0.151000
     15 C23         -2.3290    -4.3930     0.3280 ca         1 5TA      -0.089000
     16 C24          5.9380     1.0910    -2.5270 ca         1 5TA      -0.075000
     17 C25         -7.5780     2.8160    -1.2710 ca         1 5TA       0.357900
     18 C26          8.2760     2.7680     0.0160 c3         1 5TA       0.195100
     19 C27         -7.0740     0.4500    -1.0830 ca         1 5TA      -0.051000
     20 C28         -3.2990    -3.4280     0.0170 ca         1 5TA      -0.108000
     21 N12         -6.3160     3.1740    -0.9420 nb         1 5TA      -0.662000
     22 C31         -7.9950     1.4760    -1.3520 ca         1 5TA      -0.167000
     23 C14         -2.9710    -2.0640     0.0720 ca         1 5TA       0.050000
     24 N2           0.6380    -2.2530     1.1750 n          1 5TA      -0.262400
     25 O3           2.2740    -1.0840     2.1790 os         1 5TA      -0.391100
     26 O11          0.1370    -0.2940     2.3700 o          1 5TA      -0.503000
     27 O15          4.6280    -0.4990     0.5680 os         1 5TA      -0.332100
     28 C29          5.1470     0.2810    -1.6930 ca         1 5TA      -0.199000
     29 C30          6.9510     1.8930    -1.9750 ca         1 5TA      -0.147000
     30 N21          9.5180     2.0060     0.2510 n8         1 5TA      -0.997200
     31 H1           3.7520    -2.5450     1.9140 h1         1 5TA       0.100700
     32 H2           1.9150    -3.4310    -0.0770 h1         1 5TA       0.066700
     33 H3           1.8370    -3.9500     1.6310 h1         1 5TA       0.066700
     34 H4          -1.4330    -0.6100     0.4600 ha         1 5TA       0.152000
     35 H5           3.9500    -2.1130    -0.5790 h1         1 5TA       0.046200
     36 H6           2.7860    -0.7740    -0.4030 h1         1 5TA       0.046200
     37 H7           6.5570     1.0690     1.3170 ha         1 5TA       0.149000
     38 H8          -0.3030    -4.7610     0.9440 ha         1 5TA       0.113000
     39 H9          -2.5900    -5.4490     0.3140 ha         1 5TA       0.117000
     40 H10          5.7650     1.0970    -3.6010 ha         1 5TA       0.110000
     41 H11         -8.2760     3.6270    -1.4760 h4         1 5TA       0.028100
     42 H12          8.4970     3.6060    -0.6610 h1         1 5TA       0.037200
     43 H13          7.9310     3.1880     0.9720 h1         1 5TA       0.037200
     44 H14         -7.3760    -0.5950    -1.1400 ha         1 5TA       0.129000
     45 H15         -4.3070    -3.7410    -0.2480 ha         1 5TA       0.123000
     46 H16         -9.0220     1.2440    -1.6210 ha         1 5TA       0.131000
     47 H17          4.3710    -0.3290    -2.1450 ha         1 5TA       0.113000
     48 H18          7.5570     2.5170    -2.6300 ha         1 5TA       0.112000
     49 H19          9.8680     1.6660    -0.6520 hn         1 5TA       0.397500
     50 H20         10.2500     2.6530     0.5680 hn         1 5TA       0.397500
     51 Cl1         -3.8040     2.7270    -0.2600 cl         1 5TA      -0.146000
@<TRIPOS>BOND
     1     1    24 1   
     2     1    25 1   
     3     1    26 2   
     4     2     3 3   
     5     2     8 1   
     6     3    23 1   
     7     4     9 ar  
     8     4    14 ar  
     9     4    24 1   
    10     5     8 ar  
    11     5    21 ar  
    12     5    51 1   
    13     6     7 1   
    14     6    10 1   
    15     6    25 1   
    16     6    31 1   
    17     7    24 1   
    18     7    32 1   
    19     7    33 1   
    20     8    19 ar  
    21     9    23 ar  
    22     9    34 1   
    23    10    27 1   
    24    10    35 1   
    25    10    36 1   
    26    11    12 ar  
    27    11    27 1   
    28    11    28 ar  
    29    12    13 ar  
    30    12    37 1   
    31    13    18 1   
    32    13    29 ar  
    33    14    15 ar  
    34    14    38 1   
    35    15    20 ar  
    36    15    39 1   
    37    16    28 ar  
    38    16    29 ar  
    39    16    40 1   
    40    17    21 ar  
    41    17    22 ar  
    42    17    41 1   
    43    18    30 1   
    44    18    42 1   
    45    18    43 1   
    46    19    22 ar  
    47    19    44 1   
    48    20    23 ar  
    49    20    45 1   
    50    22    46 1   
    51    28    47 1   
    52    29    48 1   
    53    30    49 1   
    54    30    50 1   
@<TRIPOS>SUBSTRUCTURE
     1 5TA         1 TEMP              0 ****  ****    0 ROOT
