@<TRIPOS>MOLECULE
5TB
   55    57     1     0     0
SMALL
No Charge or Current Charge


@<TRIPOS>ATOM
      1 C1          -5.6870    -0.9240    -0.4670 c5         1 5TB      -0.069700
      2 C2          -6.5530     0.1170     0.2900 c5         1 5TB      -0.077400
      3 C3          -7.9270    -0.0020    -0.4310 c5         1 5TB      -0.079900
      4 O           -1.6480    -1.3760     1.2350 o          1 5TB      -0.594100
      5 C7          -1.9230    -0.2920     0.7350 c          1 5TB       0.612100
      6 C5          -4.3080    -1.2220     0.1700 c3         1 5TB      -0.059400
      7 C4          -7.9740    -1.4680    -0.9720 c5         1 5TB      -0.079900
      8 C           -6.6680    -2.1220    -0.4450 c5         1 5TB      -0.077400
      9 N           -0.9400     0.7130     0.6180 n          1 5TB      -0.414800
     10 C11          0.4120     0.4440     1.1620 c6         1 5TB       0.353200
     11 N1           1.4520     1.2870     0.5280 nh         1 5TB      -0.804400
     12 C10          1.1720     2.7350     0.6140 c6         1 5TB       0.197800
     13 C9          -0.1590     3.0190    -0.0930 c6         1 5TB      -0.107400
     14 C8          -1.2980     2.1570     0.4930 c6         1 5TB       0.099000
     15 C12          2.7790     0.8230     0.3760 ca         1 5TB       0.295000
     16 C17          3.3370    -0.1120     1.2700 ca         1 5TB      -0.158500
     17 C16          4.6580    -0.5630     1.1030 ca         1 5TB      -0.069000
     18 C15          5.4430    -0.0850     0.0360 ca         1 5TB      -0.121300
     19 C14          4.8890     0.8470    -0.8610 ca         1 5TB      -0.069000
     20 C13          3.5680     1.2960    -0.6890 ca         1 5TB      -0.158500
     21 C18          6.8740    -0.5690    -0.1400 c3         1 5TB       0.209100
     22 N2           6.8960    -1.8490    -0.8690 n7         1 5TB      -0.858400
     23 C19          8.2400    -2.3960    -1.1350 c3         1 5TB       0.144100
     24 H1          -5.4980    -0.5980    -1.4980 hc         1 5TB       0.042700
     25 H2          -6.6390    -0.1300     1.3550 hc         1 5TB       0.041450
     26 H3          -6.1450     1.1330     0.2260 hc         1 5TB       0.041450
     27 H4          -8.7570     0.2110     0.2530 hc         1 5TB       0.041450
     28 H5          -8.0040     0.7160    -1.2550 hc         1 5TB       0.041450
     29 H6          -3.7500     0.8340     0.7170 hc         1 5TB       0.056700
     30 H7          -3.2160     0.4040    -0.8370 hc         1 5TB       0.056700
     31 H8          -4.4440    -1.5670     1.2030 hc         1 5TB       0.057200
     32 H9          -3.8370    -2.0520    -0.3720 hc         1 5TB       0.057200
     33 H10         -8.8650    -2.0080    -0.6320 hc         1 5TB       0.041450
     34 H11         -7.9980    -1.4730    -2.0690 hc         1 5TB       0.041450
     35 H12         -6.3340    -2.9500    -1.0810 hc         1 5TB       0.041450
     36 H13         -6.7990    -2.5220     0.5680 hc         1 5TB       0.041450
     37 H14          0.4000     0.6270     2.2480 h2         1 5TB       0.061700
     38 H15          0.6620    -0.6140     0.9880 h2         1 5TB       0.061700
     39 H16          1.1100     3.0490     1.6670 h1         1 5TB       0.039700
     40 H17          1.9680     3.3270     0.1380 h1         1 5TB       0.039700
     41 H18         -0.4110     4.0840    -0.0100 hc         1 5TB       0.056700
     42 H19         -0.0530     2.8010    -1.1640 hc         1 5TB       0.056700
     43 H20         -2.1810     2.2900    -0.1450 h1         1 5TB       0.050200
     44 H21         -1.5570     2.5360     1.4920 h1         1 5TB       0.050200
     45 H22          2.7560    -0.4870     2.1080 ha         1 5TB       0.113500
     46 H23          5.0750    -1.2840     1.8040 ha         1 5TB       0.114500
     47 H24          5.4810     1.2240    -1.6920 ha         1 5TB       0.114500
     48 H25          3.1500     2.0070    -1.3960 ha         1 5TB       0.113500
     49 H26          7.4480     0.1930    -0.6870 h1         1 5TB       0.032700
     50 H27          7.3410    -0.6830     0.8480 h1         1 5TB       0.032700
     51 H28          6.4240    -1.7000    -1.7700 hn         1 5TB       0.412000
     52 H30          8.1690    -3.3490    -1.6750 h1         1 5TB       0.028367
     53 H31          8.8320    -1.7010    -1.7460 h1         1 5TB       0.028367
     54 H32          8.7810    -2.5760    -0.1960 h1         1 5TB       0.028367
     55 C6          -3.3320    -0.0180     0.1680 c3         1 5TB      -0.153400
@<TRIPOS>BOND
     1     1     2 1   
     2     1     6 1   
     3     1     8 1   
     4     1    24 1   
     5     2     3 1   
     6     2    25 1   
     7     2    26 1   
     8     3     7 1   
     9     3    27 1   
    10     3    28 1   
    11     4     5 2   
    12     5     9 1   
    13     5    55 1   
    14     6    31 1   
    15     6    32 1   
    16     6    55 1   
    17     7     8 1   
    18     7    33 1   
    19     7    34 1   
    20     8    35 1   
    21     8    36 1   
    22     9    10 1   
    23     9    14 1   
    24    10    11 1   
    25    10    37 1   
    26    10    38 1   
    27    11    12 1   
    28    11    15 1   
    29    12    13 1   
    30    12    39 1   
    31    12    40 1   
    32    13    14 1   
    33    13    41 1   
    34    13    42 1   
    35    14    43 1   
    36    14    44 1   
    37    15    16 ar  
    38    15    20 ar  
    39    16    17 ar  
    40    16    45 1   
    41    17    18 ar  
    42    17    46 1   
    43    18    19 ar  
    44    18    21 1   
    45    19    20 ar  
    46    19    47 1   
    47    20    48 1   
    48    21    22 1   
    49    21    49 1   
    50    21    50 1   
    51    22    23 1   
    52    22    51 1   
    53    23    52 1   
    54    23    53 1   
    55    23    54 1   
    56    29    55 1   
    57    30    55 1   
@<TRIPOS>SUBSTRUCTURE
     1 5TB         1 TEMP              0 ****  ****    0 ROOT
