@<TRIPOS>MOLECULE
5TB
   55    57     1     0     0
SMALL
bcc


@<TRIPOS>ATOM
      1 C1          -5.4610    -0.6540    -0.7430 c5         1 5TB      -0.069700
      2 C2          -6.2720     0.1040     0.3170 c5         1 5TB      -0.077400
      3 C3          -7.7220    -0.1950    -0.0480 c5         1 5TB      -0.079900
      4 O           -1.3690    -1.3190     0.3560 o          1 5TB      -0.594100
      5 C7          -1.7830    -0.1700     0.4370 c          1 5TB       0.679100
      6 C5          -4.0510    -1.0340    -0.3070 c3         1 5TB      -0.059400
      7 C4          -7.6860    -1.6820    -0.3980 c5         1 5TB      -0.079900
      8 C           -6.3320    -1.8850    -1.1020 c5         1 5TB      -0.077400
      9 N           -1.0020     0.8370     0.9030 n          1 5TB      -0.481800
     10 C11          0.3800     0.5970     1.2420 c6         1 5TB       0.353200
     11 N1           1.2460     1.2290     0.2690 nh         1 5TB      -0.666000
     12 C10          1.0210     2.6710     0.2000 c6         1 5TB       0.197800
     13 C9          -0.4390     2.9710    -0.0970 c6         1 5TB      -0.107400
     14 C8          -1.3440     2.2480     0.8900 c6         1 5TB       0.099000
     15 C12          2.5740     0.7920     0.2060 ca         1 5TB       0.156600
     16 C17          3.1280    -0.0920     1.1400 ca         1 5TB      -0.176500
     17 C16          4.4340    -0.5420     1.0080 ca         1 5TB      -0.087000
     18 C15          5.2510    -0.1150    -0.0330 ca         1 5TB      -0.121300
     19 C14          4.7030     0.7740    -0.9530 ca         1 5TB      -0.087000
     20 C13          3.3960     1.2180    -0.8440 ca         1 5TB      -0.176500
     21 C18          6.6610    -0.6180    -0.1700 c3         1 5TB       0.209100
     22 N2           6.6890    -2.0570    -0.3480 n7         1 5TB      -0.803200
     23 C19          8.0320    -2.5680    -0.5280 c3         1 5TB       0.144100
     24 H1          -5.3870    -0.0160    -1.6320 hc         1 5TB       0.042700
     25 H2          -6.0520    -0.2980     1.3130 hc         1 5TB       0.041450
     26 H3          -6.0470     1.1720     0.3430 hc         1 5TB       0.041450
     27 H4          -8.4280     0.0410     0.7510 hc         1 5TB       0.041450
     28 H5          -8.0140     0.3940    -0.9230 hc         1 5TB       0.041450
     29 H6          -3.6750     0.7330     0.8680 hc         1 5TB       0.056700
     30 H7          -3.1870     0.8740    -0.7990 hc         1 5TB       0.056700
     31 H8          -4.1140    -1.7080     0.5520 hc         1 5TB       0.057200
     32 H9          -3.5670    -1.5990    -1.1080 hc         1 5TB       0.057200
     33 H10         -7.7210    -2.2710     0.5220 hc         1 5TB       0.041450
     34 H11         -8.5330    -1.9980    -1.0090 hc         1 5TB       0.041450
     35 H12         -6.4570    -1.9590    -2.1830 hc         1 5TB       0.041450
     36 H13         -5.8570    -2.8150    -0.7820 hc         1 5TB       0.041450
     37 H14          0.5550     0.9870     2.2570 h2         1 5TB       0.061700
     38 H15          0.5550    -0.4740     1.2570 h2         1 5TB       0.061700
     39 H16          1.3080     3.1470     1.1510 h1         1 5TB       0.039700
     40 H17          1.6460     3.1060    -0.5760 h1         1 5TB       0.039700
     41 H18         -0.6070     4.0470    -0.0370 hc         1 5TB       0.056700
     42 H19         -0.6820     2.6520    -1.1140 hc         1 5TB       0.056700
     43 H20         -2.3890     2.3980     0.6380 h1         1 5TB       0.050200
     44 H21         -1.1960     2.6490     1.8980 h1         1 5TB       0.050200
     45 H22          2.5550    -0.4360     1.9900 ha         1 5TB       0.131500
     46 H23          4.8250    -1.2310     1.7470 ha         1 5TB       0.132500
     47 H24          5.3060     1.1250    -1.7830 ha         1 5TB       0.132500
     48 H25          3.0060     1.8830    -1.6040 ha         1 5TB       0.131500
     49 H26          7.1600    -0.0740    -0.9880 h1         1 5TB       0.032700
     50 H27          7.2290    -0.3830     0.7370 h1         1 5TB       0.032700
     51 H28          6.1310    -2.2980    -1.1590 hn         1 5TB       0.356800
     52 H30          7.9960    -3.6400    -0.7240 h1         1 5TB       0.028367
     53 H31          8.5900    -2.0950    -1.3490 h1         1 5TB       0.028367
     54 H32          8.6120    -2.4210     0.3860 h1         1 5TB       0.028367
     55 C6          -3.2060     0.1800     0.0490 c3         1 5TB      -0.153400
@<TRIPOS>BOND
     1     1     2 1   
     2     1     6 1   
     3     1     8 1   
     4     1    24 1   
     5     2     3 1   
     6     2    25 1   
     7     2    26 1   
     8     3     7 1   
     9     3    27 1   
    10     3    28 1   
    11     4     5 2   
    12     5     9 1   
    13     5    55 1   
    14     6    31 1   
    15     6    32 1   
    16     6    55 1   
    17     7     8 1   
    18     7    33 1   
    19     7    34 1   
    20     8    35 1   
    21     8    36 1   
    22     9    10 1   
    23     9    14 1   
    24    10    11 1   
    25    10    37 1   
    26    10    38 1   
    27    11    12 1   
    28    11    15 1   
    29    12    13 1   
    30    12    39 1   
    31    12    40 1   
    32    13    14 1   
    33    13    41 1   
    34    13    42 1   
    35    14    43 1   
    36    14    44 1   
    37    15    16 ar  
    38    15    20 ar  
    39    16    17 ar  
    40    16    45 1   
    41    17    18 ar  
    42    17    46 1   
    43    18    19 ar  
    44    18    21 1   
    45    19    20 ar  
    46    19    47 1   
    47    20    48 1   
    48    21    22 1   
    49    21    49 1   
    50    21    50 1   
    51    22    23 1   
    52    22    51 1   
    53    23    52 1   
    54    23    53 1   
    55    23    54 1   
    56    29    55 1   
    57    30    55 1   
@<TRIPOS>SUBSTRUCTURE
     1 5TB         1 TEMP              0 ****  ****    0 ROOT
