@<TRIPOS>MOLECULE
5TC
   66    69     1     0     0
SMALL
bcc


@<TRIPOS>ATOM
      1 N            7.6890     1.0620     0.0810 nh         1 5TC      -0.650000
      2 O            0.7300    -3.6530    -0.5420 o          1 5TC      -0.608100
      3 C            8.7420     0.9980    -0.9280 c6         1 5TC       0.199300
      4 C12          0.8560    -2.4610    -0.2920 c          1 5TC       0.661100
      5 N1           2.0570    -1.8600    -0.2730 ns         1 5TC      -0.579900
      6 C8           4.4680    -1.6470    -0.3690 ca         1 5TC      -0.156300
      7 C7           5.1010    -1.4920     0.8560 ca         1 5TC      -0.083000
      8 C6           6.1700    -0.6200     1.0180 ca         1 5TC      -0.186000
      9 C9           4.9340    -0.8810    -1.4360 ca         1 5TC      -0.083000
     10 C10          5.9880    -0.0000    -1.2860 ca         1 5TC      -0.186000
     11 C5           6.6400     0.1530    -0.0510 ca         1 5TC       0.169600
     12 C4           8.1960     1.3140     1.4180 c6         1 5TC       0.199300
     13 C3           9.0380     2.5820     1.4600 c6         1 5TC      -0.080900
     14 C2          10.1600     2.5470     0.4340 c6         1 5TC      -0.074400
     15 C1           9.5820     2.2640    -0.9450 c6         1 5TC      -0.080900
     16 C13         -0.3140    -1.5500     0.0260 c3         1 5TC      -0.156400
     17 C14         -1.6610    -2.2540     0.0030 c3         1 5TC      -0.059400
     18 C15         -2.8130    -1.3550     0.4450 c6         1 5TC      -0.063700
     19 C19         -4.1110    -2.1450     0.5500 c6         1 5TC      -0.082900
     20 C18         -5.2850    -1.2850     0.9940 c6         1 5TC       0.212300
     21 N2          -5.4490    -0.1210     0.1380 nh         1 5TC      -0.666000
     22 C17         -4.2320     0.6670    -0.0230 c6         1 5TC       0.212300
     23 C16         -3.0550    -0.1750    -0.4880 c6         1 5TC      -0.082900
     24 C20         -6.6730     0.4910     0.0550 ca         1 5TC       0.214600
     25 C25         -7.7730     0.0690     0.8310 ca         1 5TC      -0.211000
     26 C24         -9.0100     0.6650     0.7110 ca         1 5TC      -0.046000
     27 C23         -9.2110     1.7190    -0.1810 ca         1 5TC      -0.080000
     28 C26        -10.4840     2.3360    -0.2980 cg         1 5TC       0.247800
     29 N3         -11.5190     2.8400    -0.3920 n1         1 5TC      -0.381800
     30 C22         -8.1310     2.1580    -0.9520 ca         1 5TC      -0.046000
     31 C21         -6.8960     1.5630    -0.8370 ca         1 5TC      -0.211000
     32 H1           9.3960     0.1320    -0.7390 h1         1 5TC       0.037200
     33 H2           8.3020     0.8480    -1.9110 h1         1 5TC       0.037200
     34 H3           2.1110    -0.8750    -0.0700 hn         1 5TC       0.315500
     35 H4           3.3860    -3.4130     0.1640 h1         1 5TC       0.055200
     36 H5           3.2820    -2.9940    -1.5380 h1         1 5TC       0.055200
     37 H6           4.7730    -2.0770     1.7070 ha         1 5TC       0.131000
     38 H7           6.6390    -0.5670     1.9900 ha         1 5TC       0.134000
     39 H8           4.4600    -0.9670    -2.4070 ha         1 5TC       0.131000
     40 H9           6.2930     0.5910    -2.1400 ha         1 5TC       0.134000
     41 H10          7.3540     1.4340     2.1000 h1         1 5TC       0.037200
     42 H11          8.7910     0.4650     1.7910 h1         1 5TC       0.037200
     43 H12          8.3900     3.4430     1.2710 hc         1 5TC       0.048700
     44 H13          9.4360     2.7000     2.4700 hc         1 5TC       0.048700
     45 H14         10.7140     3.4870     0.4370 hc         1 5TC       0.042200
     46 H15         10.8740     1.7590     0.6960 hc         1 5TC       0.042200
     47 H16         10.3770     2.1470    -1.6850 hc         1 5TC       0.048700
     48 H17          8.9640     3.1050    -1.2720 hc         1 5TC       0.048700
     49 H18         -0.1420    -1.1050     1.0120 hc         1 5TC       0.054700
     50 H19         -0.2970    -0.7160    -0.6800 hc         1 5TC       0.054700
     51 H20         -1.8690    -2.6370    -1.0010 hc         1 5TC       0.058700
     52 H21         -1.6270    -3.1230     0.6640 hc         1 5TC       0.058700
     53 H22         -2.5760    -0.9580     1.4420 hc         1 5TC       0.044700
     54 H23         -4.3440    -2.5920    -0.4220 hc         1 5TC       0.052200
     55 H24         -4.0050    -2.9660     1.2620 hc         1 5TC       0.052200
     56 H25         -6.1840    -1.8960     0.9460 h1         1 5TC       0.041700
     57 H26         -5.1520    -0.9840     2.0430 h1         1 5TC       0.041700
     58 H27         -4.3950     1.4670    -0.7380 h1         1 5TC       0.041700
     59 H28         -3.9770     1.1420     0.9350 h1         1 5TC       0.041700
     60 H29         -2.1820     0.4780    -0.5390 hc         1 5TC       0.052200
     61 H30         -3.2430    -0.5420    -1.5030 hc         1 5TC       0.052200
     62 H31         -7.6670    -0.7210     1.5590 ha         1 5TC       0.135500
     63 H32         -9.8260     0.3170     1.3310 ha         1 5TC       0.138000
     64 H33         -8.2610     2.9700    -1.6560 ha         1 5TC       0.138000
     65 H34         -6.1030     1.9260    -1.4740 ha         1 5TC       0.135500
     66 C11          3.2970    -2.5730    -0.5290 c3         1 5TC       0.162300
@<TRIPOS>BOND
     1     1     3 1   
     2     1    11 1   
     3     1    12 1   
     4     2     4 2   
     5     3    15 1   
     6     3    32 1   
     7     3    33 1   
     8     4     5 1   
     9     4    16 1   
    10     5    34 1   
    11     5    66 1   
    12     6     7 ar  
    13     6     9 ar  
    14     6    66 1   
    15     7     8 ar  
    16     7    37 1   
    17     8    11 ar  
    18     8    38 1   
    19     9    10 ar  
    20     9    39 1   
    21    10    11 ar  
    22    10    40 1   
    23    12    13 1   
    24    12    41 1   
    25    12    42 1   
    26    13    14 1   
    27    13    43 1   
    28    13    44 1   
    29    14    15 1   
    30    14    45 1   
    31    14    46 1   
    32    15    47 1   
    33    15    48 1   
    34    16    17 1   
    35    16    49 1   
    36    16    50 1   
    37    17    18 1   
    38    17    51 1   
    39    17    52 1   
    40    18    19 1   
    41    18    23 1   
    42    18    53 1   
    43    19    20 1   
    44    19    54 1   
    45    19    55 1   
    46    20    21 1   
    47    20    56 1   
    48    20    57 1   
    49    21    22 1   
    50    21    24 1   
    51    22    23 1   
    52    22    58 1   
    53    22    59 1   
    54    23    60 1   
    55    23    61 1   
    56    24    25 ar  
    57    24    31 ar  
    58    25    26 ar  
    59    25    62 1   
    60    26    27 ar  
    61    26    63 1   
    62    27    28 1   
    63    27    30 ar  
    64    28    29 3   
    65    30    31 ar  
    66    30    64 1   
    67    31    65 1   
    68    35    66 1   
    69    36    66 1   
@<TRIPOS>SUBSTRUCTURE
     1 5TC         1 TEMP              0 ****  ****    0 ROOT
