@<TRIPOS>MOLECULE
5TC
   66    69     1     0     0
SMALL
No Charge or Current Charge


@<TRIPOS>ATOM
      1 N            7.7680     0.7220     0.1590 nh         1 5TC      -0.788400
      2 O            1.3380    -1.7680    -1.9740 o          1 5TC      -0.608100
      3 C            8.9060     0.5140    -0.7810 c6         1 5TC       0.199300
      4 C12          1.1260    -1.6120    -0.7800 c          1 5TC       0.594100
      5 N1           1.9750    -2.0880     0.1920 ns         1 5TC      -0.512900
      6 C8           4.4190    -1.8870    -0.0010 ca         1 5TC      -0.156300
      7 C7           5.1250    -1.7210     1.2050 ca         1 5TC      -0.065000
      8 C6           6.2340    -0.8590     1.2630 ca         1 5TC      -0.168000
      9 C9           4.8320    -1.1800    -1.1450 ca         1 5TC      -0.065000
     10 C10          5.9420    -0.3200    -1.0820 ca         1 5TC      -0.168000
     11 C5           6.6540    -0.1500     0.1190 ca         1 5TC       0.308000
     12 C4           8.1450     1.4270     1.4170 c6         1 5TC       0.199300
     13 C3           8.8420     2.7780     1.1160 c6         1 5TC      -0.080900
     14 C2          10.0500     2.5910     0.1690 c6         1 5TC      -0.074400
     15 C1           9.6080     1.8530    -1.1160 c6         1 5TC      -0.080900
     16 C13         -0.0900    -0.8400    -0.2540 c3         1 5TC      -0.156400
     17 C14         -1.3920    -1.6660    -0.4010 c3         1 5TC      -0.059400
     18 C15         -2.6610    -1.0310     0.2460 c6         1 5TC      -0.063700
     19 C19         -3.8740    -1.9960     0.1590 c6         1 5TC      -0.082900
     20 C18         -5.1460    -1.3790     0.7880 c6         1 5TC       0.212300
     21 N2          -5.4600    -0.0600     0.1720 nh         1 5TC      -0.804400
     22 C17         -4.3360     0.9130     0.2430 c6         1 5TC       0.212300
     23 C16         -3.0500     0.3320    -0.3930 c6         1 5TC      -0.082900
     24 C20         -6.7890     0.4130     0.1000 ca         1 5TC       0.353000
     25 C25         -7.7520     0.0450     1.0590 ca         1 5TC      -0.193000
     26 C24         -9.0710     0.5270     0.9720 ca         1 5TC      -0.028000
     27 C23         -9.4400     1.3840    -0.0810 ca         1 5TC      -0.080000
     28 C26        -10.7860     1.8770    -0.1740 cg         1 5TC       0.337000
     29 N3         -11.8800     2.2810    -0.2390 n1         1 5TC      -0.471000
     30 C22         -8.4830     1.7550    -1.0430 ca         1 5TC      -0.028000
     31 C21         -7.1660     1.2700    -0.9480 ca         1 5TC      -0.193000
     32 H1           9.6370    -0.1740    -0.3300 h1         1 5TC       0.037200
     33 H2           8.5630     0.0520    -1.7180 h1         1 5TC       0.037200
     34 H3           1.7230    -1.8960     1.1530 hn         1 5TC       0.315500
     35 H4           3.3200    -3.6100     0.6840 h1         1 5TC       0.055200
     36 H5           3.1690    -3.2990    -1.0530 h1         1 5TC       0.055200
     37 H6           4.8160    -2.2610     2.0980 ha         1 5TC       0.113000
     38 H7           6.7710    -0.7550     2.2000 ha         1 5TC       0.116000
     39 H8           4.2910    -1.2940    -2.0830 ha         1 5TC       0.113000
     40 H9           6.2430     0.2280    -1.9700 ha         1 5TC       0.116000
     41 H10          7.2520     1.6260     2.0280 h1         1 5TC       0.037200
     42 H11          8.8200     0.7940     2.0140 h1         1 5TC       0.037200
     43 H12          8.1180     3.4670     0.6600 hc         1 5TC       0.048700
     44 H13          9.1680     3.2440     2.0550 hc         1 5TC       0.048700
     45 H14         10.4860     3.5670    -0.0850 hc         1 5TC       0.042200
     46 H15         10.8360     2.0150     0.6780 hc         1 5TC       0.042200
     47 H16         10.4780     1.6650    -1.7590 hc         1 5TC       0.048700
     48 H17          8.9240     2.4900    -1.6920 hc         1 5TC       0.048700
     49 H18          0.0510    -0.5990     0.8060 hc         1 5TC       0.054700
     50 H19         -0.1870     0.0830    -0.8360 hc         1 5TC       0.054700
     51 H20         -1.5730    -1.8520    -1.4680 hc         1 5TC       0.058700
     52 H21         -1.2190    -2.6520     0.0500 hc         1 5TC       0.058700
     53 H22         -2.4250    -0.8670     1.3070 hc         1 5TC       0.044700
     54 H23         -4.0770    -2.2480    -0.8910 hc         1 5TC       0.052200
     55 H24         -3.6420    -2.9420     0.6670 hc         1 5TC       0.052200
     56 H25         -5.9820    -2.0800     0.6400 h1         1 5TC       0.041700
     57 H26         -4.9990    -1.2640     1.8720 h1         1 5TC       0.041700
     58 H27         -4.5920     1.8480    -0.2750 h1         1 5TC       0.041700
     59 H28         -4.1340     1.1720     1.2940 h1         1 5TC       0.041700
     60 H29         -2.2380     1.0600    -0.2720 hc         1 5TC       0.052200
     61 H30         -3.2040     0.2090    -1.4740 hc         1 5TC       0.052200
     62 H31         -7.4830    -0.6060     1.8850 ha         1 5TC       0.117500
     63 H32         -9.8020     0.2340     1.7240 ha         1 5TC       0.120000
     64 H33         -8.7550     2.4150    -1.8650 ha         1 5TC       0.120000
     65 H34         -6.4370     1.5540    -1.7010 ha         1 5TC       0.117500
     66 C11          3.2160    -2.8150    -0.0680 c3         1 5TC       0.162300
@<TRIPOS>BOND
     1     1     3 1   
     2     1    11 1   
     3     1    12 1   
     4     2     4 2   
     5     3    15 1   
     6     3    32 1   
     7     3    33 1   
     8     4     5 1   
     9     4    16 1   
    10     5    34 1   
    11     5    66 1   
    12     6     7 ar  
    13     6     9 ar  
    14     6    66 1   
    15     7     8 ar  
    16     7    37 1   
    17     8    11 ar  
    18     8    38 1   
    19     9    10 ar  
    20     9    39 1   
    21    10    11 ar  
    22    10    40 1   
    23    12    13 1   
    24    12    41 1   
    25    12    42 1   
    26    13    14 1   
    27    13    43 1   
    28    13    44 1   
    29    14    15 1   
    30    14    45 1   
    31    14    46 1   
    32    15    47 1   
    33    15    48 1   
    34    16    17 1   
    35    16    49 1   
    36    16    50 1   
    37    17    18 1   
    38    17    51 1   
    39    17    52 1   
    40    18    19 1   
    41    18    23 1   
    42    18    53 1   
    43    19    20 1   
    44    19    54 1   
    45    19    55 1   
    46    20    21 1   
    47    20    56 1   
    48    20    57 1   
    49    21    22 1   
    50    21    24 1   
    51    22    23 1   
    52    22    58 1   
    53    22    59 1   
    54    23    60 1   
    55    23    61 1   
    56    24    25 ar  
    57    24    31 ar  
    58    25    26 ar  
    59    25    62 1   
    60    26    27 ar  
    61    26    63 1   
    62    27    28 1   
    63    27    30 ar  
    64    28    29 3   
    65    30    31 ar  
    66    30    64 1   
    67    31    65 1   
    68    35    66 1   
    69    36    66 1   
@<TRIPOS>SUBSTRUCTURE
     1 5TC         1 TEMP              0 ****  ****    0 ROOT
