@<TRIPOS>MOLECULE
5TD
   48    50     1     0     0
SMALL
No Charge or Current Charge


@<TRIPOS>ATOM
      1 O            4.7540    -1.9780    -0.3030 o          1 5TD      -0.609100
      2 C4           4.5690    -0.7890    -0.0710 c          1 5TD       0.604100
      3 N            5.6490     0.1160    -0.0960 n          1 5TD      -0.422800
      4 C3           5.5310     1.5630     0.1930 c5         1 5TD       0.103000
      5 C2           7.0170     1.9720     0.3610 c5         1 5TD      -0.094400
      6 C1           7.7140     1.0650    -0.6820 c5         1 5TD      -0.094400
      7 C            7.0300    -0.3010    -0.4180 c5         1 5TD       0.103000
      8 C5           3.1640    -0.2380     0.2510 c3         1 5TD      -0.152400
      9 C6           2.0040    -1.2660     0.1840 c3         1 5TD      -0.061400
     10 C7           0.6080    -0.7220     0.6190 c6         1 5TD      -0.061700
     11 C11          0.0880     0.4190    -0.2990 c6         1 5TD      -0.087400
     12 C10         -1.3190     0.9050     0.1290 c6         1 5TD       0.221300
     13 N1          -2.2830    -0.2280     0.1940 nh         1 5TD      -0.820400
     14 C9          -1.8390    -1.3380     1.0810 c6         1 5TD       0.221300
     15 C8          -0.4460    -1.8610     0.6570 c6         1 5TD      -0.087400
     16 C12         -3.6620    -0.0240    -0.0290 ca         1 5TD       0.373000
     17 C17         -4.4410    -1.0640    -0.5660 ca         1 5TD      -0.203500
     18 C16         -5.8160    -0.8870    -0.7980 ca         1 5TD      -0.022500
     19 C15         -6.4280     0.3420    -0.4920 ca         1 5TD      -0.089000
     20 C18         -7.8330     0.5280    -0.7270 cg         1 5TD       0.339000
     21 N2          -8.9750     0.6860    -0.9110 n1         1 5TD      -0.474000
     22 C14         -5.6560     1.3890     0.0460 ca         1 5TD      -0.022500
     23 C13         -4.2810     1.2040     0.2740 ca         1 5TD      -0.203500
     24 H1           5.0620     2.0880    -0.6490 h1         1 5TD       0.049950
     25 H2           4.9520     1.7700     1.1030 h1         1 5TD       0.049950
     26 H3           7.1810     3.0390     0.1770 hc         1 5TD       0.054450
     27 H4           7.3740     1.7540     1.3750 hc         1 5TD       0.054450
     28 H5           7.5180     1.4130    -1.7040 hc         1 5TD       0.054450
     29 H6           8.8010     1.0210    -0.5520 hc         1 5TD       0.054450
     30 H7           7.4840    -0.8220     0.4360 h1         1 5TD       0.049950
     31 H8           7.0760    -0.9590    -1.2960 h1         1 5TD       0.049950
     32 H9           3.2120     0.2440     1.2340 hc         1 5TD       0.054700
     33 H10          2.9890     0.6230    -0.4030 hc         1 5TD       0.054700
     34 H11          1.9450    -1.6640    -0.8370 hc         1 5TD       0.059200
     35 H12          2.2680    -2.1160     0.8260 hc         1 5TD       0.059200
     36 H13          0.7270    -0.3270     1.6380 hc         1 5TD       0.043700
     37 H14          0.7740     1.2750    -0.2790 hc         1 5TD       0.051950
     38 H15          0.0490     0.0720    -1.3410 hc         1 5TD       0.051950
     39 H16         -1.2500     1.3980     1.1110 h1         1 5TD       0.043700
     40 H17         -1.6610     1.6590    -0.5960 h1         1 5TD       0.043700
     41 H18         -1.7930    -0.9880     2.1230 h1         1 5TD       0.043700
     42 H19         -2.5530    -2.1740     1.0520 h1         1 5TD       0.043700
     43 H20         -0.5230    -2.3330    -0.3320 hc         1 5TD       0.051950
     44 H21         -0.1280    -2.6480     1.3540 hc         1 5TD       0.051950
     45 H22         -3.9740    -2.0120    -0.8150 ha         1 5TD       0.116000
     46 H23         -6.4010    -1.7040    -1.2170 ha         1 5TD       0.119500
     47 H24         -6.1190     2.3440     0.2900 ha         1 5TD       0.119500
     48 H25         -3.7040     2.0190     0.7010 ha         1 5TD       0.116000
@<TRIPOS>BOND
     1     1     2 2   
     2     2     3 1   
     3     2     8 1   
     4     3     4 1   
     5     3     7 1   
     6     4     5 1   
     7     4    24 1   
     8     4    25 1   
     9     5     6 1   
    10     5    26 1   
    11     5    27 1   
    12     6     7 1   
    13     6    28 1   
    14     6    29 1   
    15     7    30 1   
    16     7    31 1   
    17     8     9 1   
    18     8    32 1   
    19     8    33 1   
    20     9    10 1   
    21     9    34 1   
    22     9    35 1   
    23    10    11 1   
    24    10    15 1   
    25    10    36 1   
    26    11    12 1   
    27    11    37 1   
    28    11    38 1   
    29    12    13 1   
    30    12    39 1   
    31    12    40 1   
    32    13    14 1   
    33    13    16 1   
    34    14    15 1   
    35    14    41 1   
    36    14    42 1   
    37    15    43 1   
    38    15    44 1   
    39    16    17 ar  
    40    16    23 ar  
    41    17    18 ar  
    42    17    45 1   
    43    18    19 ar  
    44    18    46 1   
    45    19    20 1   
    46    19    22 ar  
    47    20    21 3   
    48    22    23 ar  
    49    22    47 1   
    50    23    48 1   
@<TRIPOS>SUBSTRUCTURE
     1 5TD         1 TEMP              0 ****  ****    0 ROOT
