@<TRIPOS>MOLECULE
5TD
   48    50     1     0     0
SMALL
bcc


@<TRIPOS>ATOM
      1 O            4.6200    -1.8900    -0.6230 o          1 5TD      -0.609100
      2 C4           4.4520    -0.7350    -0.2440 c          1 5TD       0.671100
      3 N            5.4660     0.1460    -0.2150 n          1 5TD      -0.489800
      4 C3           5.3920     1.5290     0.2430 c5         1 5TD       0.103000
      5 C2           6.8540     1.9000     0.4570 c5         1 5TD      -0.094400
      6 C1           7.5740     1.0930    -0.6190 c5         1 5TD      -0.094400
      7 C            6.8100    -0.2270    -0.6440 c5         1 5TD       0.103000
      8 C5           3.1040    -0.2230     0.2200 c3         1 5TD      -0.152400
      9 C6           1.9870    -1.2460     0.0790 c3         1 5TD      -0.061400
     10 C7           0.6520    -0.7560     0.6340 c6         1 5TD      -0.061700
     11 C11          0.0990     0.4520    -0.1130 c6         1 5TD      -0.087400
     12 C10         -1.2610     0.8900     0.4160 c6         1 5TD       0.221300
     13 N1          -2.2100    -0.2090     0.3980 nh         1 5TD      -0.682000
     14 C9          -1.7370    -1.3760     1.1290 c6         1 5TD       0.221300
     15 C8          -0.3960    -1.8620     0.6040 c6         1 5TD      -0.087400
     16 C12         -3.5260    -0.0240     0.0940 ca         1 5TD       0.234600
     17 C17         -4.4100    -1.1180    -0.0620 ca         1 5TD      -0.221500
     18 C16         -5.7260    -0.9370    -0.4160 ca         1 5TD      -0.040500
     19 C15         -6.2430     0.3440    -0.6290 ca         1 5TD      -0.089000
     20 C18         -7.6000     0.5280    -0.9990 cg         1 5TD       0.249800
     21 N2          -8.7050     0.6780    -1.3010 n1         1 5TD      -0.384800
     22 C14         -5.3920     1.4390    -0.4650 ca         1 5TD      -0.040500
     23 C13         -4.0740     1.2630    -0.1070 ca         1 5TD      -0.221500
     24 H1           4.9320     2.1690    -0.5170 h1         1 5TD       0.049950
     25 H2           4.8010     1.6190     1.1550 h1         1 5TD       0.049950
     26 H3           7.0210     2.9740     0.3780 hc         1 5TD       0.054450
     27 H4           7.1780     1.5830     1.4510 hc         1 5TD       0.054450
     28 H5           7.4940     1.5970    -1.5840 hc         1 5TD       0.054450
     29 H6           8.6330     0.9500    -0.4090 hc         1 5TD       0.054450
     30 H7           7.2450    -0.9550     0.0470 h1         1 5TD       0.049950
     31 H8           6.7940    -0.6840    -1.6340 h1         1 5TD       0.049950
     32 H9           3.1910     0.0840     1.2690 hc         1 5TD       0.054700
     33 H10          2.8630     0.6920    -0.3290 hc         1 5TD       0.054700
     34 H11          1.8600    -1.5200    -0.9730 hc         1 5TD       0.059200
     35 H12          2.2670    -2.1630     0.6040 hc         1 5TD       0.059200
     36 H13          0.8030    -0.4670     1.6840 hc         1 5TD       0.043700
     37 H14          0.7760     1.3060    -0.0440 hc         1 5TD       0.051950
     38 H15          0.0020     0.2080    -1.1760 hc         1 5TD       0.051950
     39 H16         -1.1570     1.2860     1.4360 h1         1 5TD       0.043700
     40 H17         -1.6190     1.7040    -0.2090 h1         1 5TD       0.043700
     41 H18         -1.6380    -1.1110     2.1910 h1         1 5TD       0.043700
     42 H19         -2.4600    -2.1830     1.0780 h1         1 5TD       0.043700
     43 H20         -0.5200    -2.2280    -0.4210 hc         1 5TD       0.051950
     44 H21         -0.0720    -2.7120     1.2090 hc         1 5TD       0.051950
     45 H22         -4.0630    -2.1330     0.0640 ha         1 5TD       0.134000
     46 H23         -6.3610    -1.8040    -0.5410 ha         1 5TD       0.137500
     47 H24         -5.7690     2.4430    -0.6070 ha         1 5TD       0.137500
     48 H25         -3.4750     2.1500     0.0340 ha         1 5TD       0.134000
@<TRIPOS>BOND
     1     1     2 2   
     2     2     3 1   
     3     2     8 1   
     4     3     4 1   
     5     3     7 1   
     6     4     5 1   
     7     4    24 1   
     8     4    25 1   
     9     5     6 1   
    10     5    26 1   
    11     5    27 1   
    12     6     7 1   
    13     6    28 1   
    14     6    29 1   
    15     7    30 1   
    16     7    31 1   
    17     8     9 1   
    18     8    32 1   
    19     8    33 1   
    20     9    10 1   
    21     9    34 1   
    22     9    35 1   
    23    10    11 1   
    24    10    15 1   
    25    10    36 1   
    26    11    12 1   
    27    11    37 1   
    28    11    38 1   
    29    12    13 1   
    30    12    39 1   
    31    12    40 1   
    32    13    14 1   
    33    13    16 1   
    34    14    15 1   
    35    14    41 1   
    36    14    42 1   
    37    15    43 1   
    38    15    44 1   
    39    16    17 ar  
    40    16    23 ar  
    41    17    18 ar  
    42    17    45 1   
    43    18    19 ar  
    44    18    46 1   
    45    19    20 1   
    46    19    22 ar  
    47    20    21 3   
    48    22    23 ar  
    49    22    47 1   
    50    23    48 1   
@<TRIPOS>SUBSTRUCTURE
     1 5TD         1 TEMP              0 ****  ****    0 ROOT
