@<TRIPOS>MOLECULE
5TE
   50    52     1     0     0
SMALL
No Charge or Current Charge


@<TRIPOS>ATOM
      1 C1           5.2090    -0.3190    -0.8500 c6         1 5TE       0.203300
      2 C2           4.2410     1.2250     0.8570 c6         1 5TE       0.203300
      3 C3           4.7890     2.4520     0.0880 c6         1 5TE      -0.081900
      4 N1          -0.6740    -0.8060     0.8590 ns         1 5TE      -0.150000
      5 C4           6.0620     2.0890    -0.7130 c6         1 5TE      -0.074400
      6 C5           2.9970    -0.8670     0.2440 ca         1 5TE       0.327000
      7 C6           1.6700    -0.4320     0.4100 ca         1 5TE      -0.217000
      8 C7           0.6360    -1.3360     0.7140 ca         1 5TE       0.010000
      9 C8           0.9470    -2.7060     0.8500 ca         1 5TE      -0.163000
     10 C9           2.2680    -3.1520     0.6850 ca         1 5TE      -0.059000
     11 C10          3.2880    -2.2360     0.3840 ca         1 5TE      -0.199000
     12 C11         -1.8870    -1.3870     1.2070 c          1 5TE       0.606100
     13 C12         -3.0690    -0.4070     1.2330 c3         1 5TE      -0.158400
     14 C13         -4.0190    -0.6270     0.0300 c3         1 5TE      -0.057400
     15 C14         -5.2660     0.2920     0.0240 c5         1 5TE      -0.071700
     16 C15         -6.2030     0.0790    -1.1900 c5         1 5TE      -0.077400
     17 C16         -7.2250     1.2330    -1.0030 c5         1 5TE      -0.078900
     18 C17         -6.3930     2.3990    -0.3780 c5         1 5TE      -0.078900
     19 C18         -4.9710     1.8050    -0.1550 c5         1 5TE      -0.077400
     20 O           -2.0310    -2.5680     1.5030 o          1 5TE      -0.579100
     21 N            4.0070     0.0740    -0.0600 nh         1 5TE      -0.796400
     22 C            5.7770     0.8860    -1.6420 c6         1 5TE      -0.081900
     23 H1           5.9870    -0.7130    -0.1790 h1         1 5TE       0.036450
     24 H2           4.9540    -1.1150    -1.5650 h1         1 5TE       0.036450
     25 H3           4.9600     0.9370     1.6380 h1         1 5TE       0.036450
     26 H4           3.3110     1.5160     1.3670 h1         1 5TE       0.036450
     27 H5           4.0160     2.8310    -0.5950 hc         1 5TE       0.047450
     28 H6           5.0090     3.2640     0.7940 hc         1 5TE       0.047450
     29 H7          -0.7340     0.1850     0.6650 hn         1 5TE       0.146000
     30 H8           6.3970     2.9520    -1.3030 hc         1 5TE       0.040700
     31 H9           6.8790     1.8400    -0.0210 hc         1 5TE       0.040700
     32 H10          1.4400     0.6220     0.2900 ha         1 5TE       0.109000
     33 H11          0.1820    -3.4420     1.0770 ha         1 5TE       0.148000
     34 H12          2.5020    -4.2090     0.7930 ha         1 5TE       0.111000
     35 H13          4.3060    -2.5970     0.2720 ha         1 5TE       0.113000
     36 H14         -3.6360    -0.5680     2.1570 hc         1 5TE       0.057700
     37 H15         -2.6960     0.6240     1.2020 hc         1 5TE       0.057700
     38 H16         -3.4530    -0.4880    -0.9000 hc         1 5TE       0.057200
     39 H17         -4.3490    -1.6740     0.0310 hc         1 5TE       0.057200
     40 H18         -5.8030     0.1070     0.9630 hc         1 5TE       0.046700
     41 H19         -5.6640     0.1700    -2.1420 hc         1 5TE       0.042450
     42 H20         -6.6850    -0.9050    -1.1820 hc         1 5TE       0.042450
     43 H21         -7.6940     1.5200    -1.9520 hc         1 5TE       0.040700
     44 H22         -8.0350     0.9320    -0.3280 hc         1 5TE       0.040700
     45 H23         -6.3600     3.2780    -1.0320 hc         1 5TE       0.040700
     46 H24         -6.8370     2.7260     0.5690 hc         1 5TE       0.040700
     47 H25         -4.4780     2.2460     0.7190 hc         1 5TE       0.042450
     48 H26         -4.3230     1.9890    -1.0200 hc         1 5TE       0.042450
     49 H27          6.6970     0.5870    -2.1630 hc         1 5TE       0.047450
     50 H28          5.0600     1.1810    -2.4200 hc         1 5TE       0.047450
@<TRIPOS>BOND
     1     1    21 1   
     2     1    22 1   
     3     1    23 1   
     4     1    24 1   
     5     2     3 1   
     6     2    21 1   
     7     2    25 1   
     8     2    26 1   
     9     3     5 1   
    10     3    27 1   
    11     3    28 1   
    12     4     8 1   
    13     4    12 1   
    14     4    29 1   
    15     5    22 1   
    16     5    30 1   
    17     5    31 1   
    18     6     7 ar  
    19     6    11 ar  
    20     6    21 1   
    21     7     8 ar  
    22     7    32 1   
    23     8     9 ar  
    24     9    10 ar  
    25     9    33 1   
    26    10    11 ar  
    27    10    34 1   
    28    11    35 1   
    29    12    13 1   
    30    12    20 2   
    31    13    14 1   
    32    13    36 1   
    33    13    37 1   
    34    14    15 1   
    35    14    38 1   
    36    14    39 1   
    37    15    16 1   
    38    15    19 1   
    39    15    40 1   
    40    16    17 1   
    41    16    41 1   
    42    16    42 1   
    43    17    18 1   
    44    17    43 1   
    45    17    44 1   
    46    18    19 1   
    47    18    45 1   
    48    18    46 1   
    49    19    47 1   
    50    19    48 1   
    51    22    49 1   
    52    22    50 1   
@<TRIPOS>SUBSTRUCTURE
     1 5TE         1 TEMP              0 ****  ****    0 ROOT
