@<TRIPOS>MOLECULE
5TE
   50    52     1     0     0
SMALL
bcc


@<TRIPOS>ATOM
      1 C1           5.4610    -0.3340    -0.5100 c6         1 5TE       0.203300
      2 C2           4.2000     1.2540     0.8230 c6         1 5TE       0.203300
      3 C3           5.0560     2.4090     0.3310 c6         1 5TE      -0.081900
      4 N1          -0.5570    -0.5470     0.2850 ns         1 5TE      -0.476100
      5 C4           6.4540     1.9290    -0.0340 c6         1 5TE      -0.074400
      6 C5           3.1010    -0.7400    -0.0450 ca         1 5TE       0.188600
      7 C6           1.7860    -0.2790     0.0850 ca         1 5TE      -0.235000
      8 C7           0.7020    -1.1470     0.1740 ca         1 5TE       0.102600
      9 C8           0.9130    -2.5270     0.1210 ca         1 5TE      -0.181000
     10 C9           2.2140    -2.9840    -0.0160 ca         1 5TE      -0.077000
     11 C10          3.3010    -2.1260    -0.0910 ca         1 5TE      -0.217000
     12 C11         -1.7830    -1.1110     0.4470 c          1 5TE       0.673100
     13 C12         -2.9010    -0.0960     0.5690 c3         1 5TE      -0.158400
     14 C13         -4.2620    -0.6480     0.1700 c3         1 5TE      -0.057400
     15 C14         -5.3770     0.3800     0.2960 c5         1 5TE      -0.071700
     16 C15         -6.7620    -0.1890    -0.0370 c5         1 5TE      -0.077400
     17 C16         -7.6380     1.0240    -0.4150 c5         1 5TE      -0.078900
     18 C17         -6.6670     2.2140    -0.5550 c5         1 5TE      -0.078900
     19 C18         -5.2790     1.5810    -0.6440 c5         1 5TE      -0.077400
     20 O           -1.9760    -2.3130     0.5060 o          1 5TE      -0.579100
     21 N            4.1460     0.1740    -0.1570 nh         1 5TE      -0.658000
     22 C            6.3570     0.7820    -1.0290 c6         1 5TE      -0.081900
     23 H1           5.9470    -0.8250     0.3490 h1         1 5TE       0.036450
     24 H2           5.3530    -1.0890    -1.2890 h1         1 5TE       0.036450
     25 H3           4.6060     0.8800     1.7760 h1         1 5TE       0.036450
     26 H4           3.1950     1.6150     1.0320 h1         1 5TE       0.036450
     27 H5           4.5790     2.8650    -0.5410 hc         1 5TE       0.047450
     28 H6           5.0980     3.1740     1.1100 hc         1 5TE       0.047450
     29 H7          -0.5430     0.4620     0.2640 hn         1 5TE       0.312500
     30 H8           7.0490     2.7470    -0.4450 hc         1 5TE       0.040700
     31 H9           6.9690     1.5870     0.8700 hc         1 5TE       0.040700
     32 H10          1.5940     0.7880     0.0900 ha         1 5TE       0.127000
     33 H11          0.0980    -3.2270     0.1790 ha         1 5TE       0.166000
     34 H12          2.3890    -4.0520    -0.0530 ha         1 5TE       0.129000
     35 H13          4.2930    -2.5470    -0.1710 ha         1 5TE       0.131000
     36 H14         -2.9280     0.2410     1.6110 hc         1 5TE       0.057700
     37 H15         -2.6560     0.7890    -0.0230 hc         1 5TE       0.057700
     38 H16         -4.2260    -1.0090    -0.8630 hc         1 5TE       0.057200
     39 H17         -4.5020    -1.5140     0.7910 hc         1 5TE       0.057200
     40 H18         -5.3940     0.7570     1.3270 hc         1 5TE       0.046700
     41 H19         -6.6720    -0.8700    -0.8890 hc         1 5TE       0.042450
     42 H20         -7.1780    -0.7710     0.7870 hc         1 5TE       0.042450
     43 H21         -8.1700     0.8390    -1.3490 hc         1 5TE       0.040700
     44 H22         -8.3990     1.2220     0.3410 hc         1 5TE       0.040700
     45 H23         -6.8980     2.8500    -1.4110 hc         1 5TE       0.040700
     46 H24         -6.7180     2.8490     0.3330 hc         1 5TE       0.040700
     47 H25         -4.4810     2.2800    -0.3840 hc         1 5TE       0.042450
     48 H26         -5.0830     1.2280    -1.6630 hc         1 5TE       0.042450
     49 H27          7.3440     0.3660    -1.2430 hc         1 5TE       0.047450
     50 H28          5.9540     1.1480    -1.9780 hc         1 5TE       0.047450
@<TRIPOS>BOND
     1     1    21 1   
     2     1    22 1   
     3     1    23 1   
     4     1    24 1   
     5     2     3 1   
     6     2    21 1   
     7     2    25 1   
     8     2    26 1   
     9     3     5 1   
    10     3    27 1   
    11     3    28 1   
    12     4     8 1   
    13     4    12 1   
    14     4    29 1   
    15     5    22 1   
    16     5    30 1   
    17     5    31 1   
    18     6     7 ar  
    19     6    11 ar  
    20     6    21 1   
    21     7     8 ar  
    22     7    32 1   
    23     8     9 ar  
    24     9    10 ar  
    25     9    33 1   
    26    10    11 ar  
    27    10    34 1   
    28    11    35 1   
    29    12    13 1   
    30    12    20 2   
    31    13    14 1   
    32    13    36 1   
    33    13    37 1   
    34    14    15 1   
    35    14    38 1   
    36    14    39 1   
    37    15    16 1   
    38    15    19 1   
    39    15    40 1   
    40    16    17 1   
    41    16    41 1   
    42    16    42 1   
    43    17    18 1   
    44    17    43 1   
    45    17    44 1   
    46    18    19 1   
    47    18    45 1   
    48    18    46 1   
    49    19    47 1   
    50    19    48 1   
    51    22    49 1   
    52    22    50 1   
@<TRIPOS>SUBSTRUCTURE
     1 5TE         1 TEMP              0 ****  ****    0 ROOT
