@<TRIPOS>MOLECULE
5TF
   43    46     1     0     0
SMALL
abcg2


@<TRIPOS>ATOM
      1 C1           2.1810     3.4840     1.3890 c3         1 5TF      -0.108600
      2 C2           2.0610     2.3460     0.3880 c3         1 5TF       0.234500
      3 C3           2.4560     2.7850    -1.0180 c3         1 5TF      -0.108600
      4 N4           2.8560     1.2200     0.8480 nu         1 5TF      -0.930100
      5 C5           2.6080    -0.0580     0.5080 cc         1 5TF       0.584900
      6 C6           3.5140    -1.0810     0.9900 cc         1 5TF      -0.186000
      7 C7           3.2670    -2.3790     0.7260 cd         1 5TF       0.003000
      8 C8           2.0990    -2.6790    -0.0230 cd         1 5TF      -0.177000
      9 N9           1.5560    -3.8030    -0.4360 nc         1 5TF      -0.073000
     10 N10          0.4400    -3.4750    -1.1140 nc         1 5TF      -0.381700
     11 C11          0.3020    -2.1700    -1.1160 cd         1 5TF       0.354800
     12 C12         -0.7890    -1.3590    -1.7300 c3         1 5TF       0.020200
     13 C13         -1.7180    -2.2270    -2.5760 c3         1 5TF      -0.077100
     14 C14         -1.5310    -0.5870    -0.6730 cc         1 5TF      -0.133400
     15 C15         -2.2270    -1.1020     0.3840 cd         1 5TF      -0.133100
     16 N16         -2.7660    -0.0910     1.1340 na         1 5TF      -0.326400
     17 C17         -2.4280     1.1030     0.5790 ca         1 5TF       0.365500
     18 N18         -2.7610     2.2990     1.0400 nb         1 5TF      -0.682000
     19 C19         -2.3000     3.3210     0.3310 ca         1 5TF       0.350900
     20 C20         -1.5180     3.1890    -0.8220 ca         1 5TF      -0.206000
     21 C21         -1.1790     1.9300    -1.2850 ca         1 5TF      -0.025000
     22 C22         -1.6470     0.8320    -0.5690 ca         1 5TF      -0.117800
     23 N23          1.3360    -1.6280    -0.4340 na         1 5TF       0.159000
     24 N24          1.5520    -0.3220    -0.2160 nd         1 5TF      -0.564800
     25 H11C         1.5660     4.3270     1.0730 hc         1 5TF       0.042867
     26 H12C         1.8490     3.1770     2.3810 hc         1 5TF       0.042867
     27 H13C         3.2110     3.8390     1.4670 hc         1 5TF       0.042867
     28 H2           1.0220     2.0110     0.3630 h1         1 5TF       0.087700
     29 H31C         1.8210     3.6060    -1.3530 hc         1 5TF       0.042867
     30 H32C         3.4920     3.1300    -1.0410 hc         1 5TF       0.042867
     31 H33C         2.3500     1.9680    -1.7320 hc         1 5TF       0.042867
     32 H4           3.7510     1.4210     1.2640 hn         1 5TF       0.491000
     33 H6           4.3840    -0.7830     1.5610 ha         1 5TF       0.130000
     34 H7           3.9160    -3.1740     1.0650 ha         1 5TF       0.149000
     35 H12         -0.3080    -0.6290    -2.3910 hc         1 5TF       0.070700
     36 H131        -1.1710    -2.7440    -3.3640 hc         1 5TF       0.044367
     37 H132        -2.2240    -2.9760    -1.9680 hc         1 5TF       0.044367
     38 H133        -2.4770    -1.6010    -3.0430 hc         1 5TF       0.044367
     39 H15         -2.3790    -2.1310     0.6700 h4         1 5TF       0.224000
     40 H16         -3.3180    -0.2140     1.9670 hn         1 5TF       0.362000
     41 H19         -2.5580     4.3100     0.6910 h4         1 5TF       0.016100
     42 H20         -1.1800     4.0790    -1.3360 ha         1 5TF       0.118000
     43 H21         -0.5610     1.8080    -2.1660 ha         1 5TF       0.120000
@<TRIPOS>BOND
     1     1     2 1   
     2     1    25 1   
     3     1    26 1   
     4     1    27 1   
     5     2     3 1   
     6     2     4 1   
     7     2    28 1   
     8     3    29 1   
     9     3    30 1   
    10     3    31 1   
    11     4     5 1   
    12     4    32 1   
    13     5     6 1   
    14     5    24 2   
    15     6     7 2   
    16     6    33 1   
    17     7     8 1   
    18     7    34 1   
    19     8     9 2   
    20     8    23 1   
    21     9    10 1   
    22    10    11 2   
    23    11    12 1   
    24    11    23 1   
    25    12    13 1   
    26    12    14 1   
    27    12    35 1   
    28    13    36 1   
    29    13    37 1   
    30    13    38 1   
    31    14    15 2   
    32    14    22 1   
    33    15    16 1   
    34    15    39 1   
    35    16    17 1   
    36    16    40 1   
    37    17    18 ar  
    38    17    22 ar  
    39    18    19 ar  
    40    19    20 ar  
    41    19    41 1   
    42    20    21 ar  
    43    20    42 1   
    44    21    22 ar  
    45    21    43 1   
    46    23    24 1   
@<TRIPOS>SUBSTRUCTURE
     1 5TF         1 TEMP              0 ****  ****    0 ROOT
