@<TRIPOS>MOLECULE
5TF
   43    46     1     0     0
SMALL
No Charge or Current Charge


@<TRIPOS>ATOM
      1 C1           2.5620     3.5550     1.4260 c3         1 5TF      -0.108600
      2 C2           2.2420     2.4940     0.3580 c3         1 5TF       0.234500
      3 C3           2.4920     3.0140    -1.0710 c3         1 5TF      -0.108600
      4 N4           3.0630     1.2990     0.6020 nu         1 5TF      -0.930100
      5 C5           2.7040    -0.0060     0.3920 cc         1 5TF       0.584900
      6 C6           3.6080    -0.9830     0.9400 cc         1 5TF      -0.186000
      7 C7           3.3230    -2.3210     0.7970 cd         1 5TF       0.003000
      8 C8           2.1130    -2.5770     0.0910 cd         1 5TF      -0.177000
      9 N9           1.5610    -3.7430    -0.1970 nc         1 5TF      -0.073000
     10 N10          0.3750    -3.4760    -0.8990 nc         1 5TF      -0.381700
     11 C11          0.2480    -2.1500    -1.0190 cd         1 5TF       0.354800
     12 C12         -0.8940    -1.4210    -1.7070 c3         1 5TF       0.020200
     13 C13         -1.7350    -2.3360    -2.6290 c3         1 5TF      -0.077100
     14 C14         -1.7720    -0.6910    -0.7150 cc         1 5TF      -0.133400
     15 C15         -2.6580    -1.2510     0.1970 cd         1 5TF      -0.133100
     16 N16         -3.2540    -0.2200     0.9640 na         1 5TF      -0.326400
     17 C17         -2.7280     0.9780     0.5320 ca         1 5TF       0.365500
     18 N18         -2.9980     2.2170     0.9850 nb         1 5TF      -0.682000
     19 C19         -2.3410     3.2470     0.3940 ca         1 5TF       0.350900
     20 C20         -1.4100     3.0690    -0.6510 ca         1 5TF      -0.206000
     21 C21         -1.1390     1.7700    -1.1150 ca         1 5TF      -0.025000
     22 C22         -1.8320     0.7270    -0.4840 ca         1 5TF      -0.117800
     23 N23          1.3300    -1.5800    -0.4000 na         1 5TF       0.159000
     24 N24          1.5780    -0.2200    -0.2810 nd         1 5TF      -0.564800
     25 H11C         1.9410     4.4460     1.2760 hc         1 5TF       0.042867
     26 H12C         2.3580     3.1670     2.4300 hc         1 5TF       0.042867
     27 H13C         3.6150     3.8600     1.3770 hc         1 5TF       0.042867
     28 H2           1.1740     2.2470     0.4520 h1         1 5TF       0.087700
     29 H31C         1.8770     3.9000    -1.2690 hc         1 5TF       0.042867
     30 H32C         3.5450     3.2870    -1.2110 hc         1 5TF       0.042867
     31 H33C         2.2330     2.2500    -1.8130 hc         1 5TF       0.042867
     32 H4           3.9220     1.4160     1.1320 hn         1 5TF       0.491000
     33 H6           4.4990    -0.6600     1.4660 ha         1 5TF       0.130000
     34 H7           3.9590    -3.1070     1.1930 ha         1 5TF       0.149000
     35 H12         -0.4360    -0.6780    -2.3690 hc         1 5TF       0.070700
     36 H131        -1.1000    -2.8070    -3.3890 hc         1 5TF       0.044367
     37 H132        -2.2310    -3.1280    -2.0550 hc         1 5TF       0.044367
     38 H133        -2.5070    -1.7540    -3.1450 hc         1 5TF       0.044367
     39 H15         -2.8990    -2.3010     0.3580 h4         1 5TF       0.224000
     40 H16         -3.9370    -0.3250     1.7040 hn         1 5TF       0.362000
     41 H19         -2.5660     4.2450     0.7690 h4         1 5TF       0.016100
     42 H20         -0.9120     3.9290    -1.0880 ha         1 5TF       0.118000
     43 H21         -0.4240     1.5910    -1.9140 ha         1 5TF       0.120000
@<TRIPOS>BOND
     1     1     2 1   
     2     1    25 1   
     3     1    26 1   
     4     1    27 1   
     5     2     3 1   
     6     2     4 1   
     7     2    28 1   
     8     3    29 1   
     9     3    30 1   
    10     3    31 1   
    11     4     5 1   
    12     4    32 1   
    13     5     6 1   
    14     5    24 2   
    15     6     7 2   
    16     6    33 1   
    17     7     8 1   
    18     7    34 1   
    19     8     9 2   
    20     8    23 1   
    21     9    10 1   
    22    10    11 2   
    23    11    12 1   
    24    11    23 1   
    25    12    13 1   
    26    12    14 1   
    27    12    35 1   
    28    13    36 1   
    29    13    37 1   
    30    13    38 1   
    31    14    15 2   
    32    14    22 1   
    33    15    16 1   
    34    15    39 1   
    35    16    17 1   
    36    16    40 1   
    37    17    18 ar  
    38    17    22 ar  
    39    18    19 ar  
    40    19    20 ar  
    41    19    41 1   
    42    20    21 ar  
    43    20    42 1   
    44    21    22 ar  
    45    21    43 1   
    46    23    24 1   
@<TRIPOS>SUBSTRUCTURE
     1 5TF         1 TEMP              0 ****  ****    0 ROOT
