@<TRIPOS>MOLECULE
5TG
   70    72     1     0     0
SMALL
bcc


@<TRIPOS>ATOM
      1 N            7.8490     0.8930     0.0690 n          1 5TG      -0.488800
      2 C            9.2760     0.9320    -0.2300 c5         1 5TG       0.103000
      3 O2           7.6540    -1.2900    -0.4080 o          1 5TG      -0.609100
      4 C4           7.1330    -0.2360    -0.0570 c          1 5TG       0.671100
      5 C3           7.3350     2.1890     0.4990 c5         1 5TG       0.103000
      6 C2           8.6000     2.9910     0.7810 c5         1 5TG      -0.094900
      7 C1           9.5980     2.4220    -0.2220 c5         1 5TG      -0.094900
      8 C5           5.6550    -0.1310     0.2590 c3         1 5TG      -0.152400
      9 C6           4.8830    -1.4090    -0.0310 c3         1 5TG      -0.061400
     10 C7           3.4160    -1.3360     0.3830 c6         1 5TG      -0.062700
     11 C11          2.7350    -2.6880     0.2020 c6         1 5TG      -0.078900
     12 C10          1.2660    -2.6550     0.5890 c6         1 5TG       0.197300
     13 N1           0.5520    -1.6300    -0.1500 nh         1 5TG      -0.645000
     14 C9           1.1500    -0.3080     0.0110 c6         1 5TG       0.197300
     15 C8           2.6150    -0.2940    -0.3900 c6         1 5TG      -0.078900
     16 C12         -0.8420    -1.6850    -0.1360 ca         1 5TG       0.158600
     17 C17         -1.5570    -2.5790     0.6660 ca         1 5TG      -0.182500
     18 C16         -2.9470    -2.6200     0.6250 ca         1 5TG      -0.086000
     19 C15         -3.6780    -1.7750    -0.1940 ca         1 5TG      -0.152300
     20 C14         -2.9660    -0.8810    -0.9970 ca         1 5TG      -0.086000
     21 C13         -1.5870    -0.8390    -0.9760 ca         1 5TG      -0.182500
     22 C18         -5.1840    -1.7970    -0.2030 c3         1 5TG       0.161300
     23 H1           9.8450     0.3970     0.5360 h1         1 5TG       0.049450
     24 H2           9.4920     0.4610    -1.1900 h1         1 5TG       0.049450
     25 H3           6.7410     2.6570    -0.2930 h1         1 5TG       0.049450
     26 H4           6.6990     2.1000     1.3810 h1         1 5TG       0.049450
     27 H5           8.4390     4.0620     0.6710 hc         1 5TG       0.053950
     28 H6           8.9400     2.8050     1.8020 hc         1 5TG       0.053950
     29 H7          10.6360     2.6180     0.0440 hc         1 5TG       0.053950
     30 H8           9.4220     2.8500    -1.2120 hc         1 5TG       0.053950
     31 H9           5.5420     0.1390     1.3150 hc         1 5TG       0.054200
     32 H10          5.2330     0.7110    -0.2980 hc         1 5TG       0.054200
     33 H11          4.9440    -1.6470    -1.0970 hc         1 5TG       0.058200
     34 H12          5.3520    -2.2430     0.4960 hc         1 5TG       0.058200
     35 H13          3.3720    -1.0740     1.4500 hc         1 5TG       0.041700
     36 H14          2.8230    -3.0000    -0.8450 hc         1 5TG       0.049700
     37 H15          3.2360    -3.4520     0.8010 hc         1 5TG       0.049700
     38 H16          0.8230    -3.6270     0.3660 h1         1 5TG       0.036200
     39 H17          1.1770    -2.5030     1.6770 h1         1 5TG       0.036200
     40 H18          0.6080     0.4160    -0.5920 h1         1 5TG       0.036200
     41 H19          1.0580     0.0210     1.0590 h1         1 5TG       0.036200
     42 H20          2.9970     0.7150    -0.2150 hc         1 5TG       0.049700
     43 H21          2.7040    -0.4880    -1.4650 hc         1 5TG       0.049700
     44 H22         -1.0470    -3.2470     1.3460 ha         1 5TG       0.132000
     45 H23         -3.4640    -3.3270     1.2660 ha         1 5TG       0.133000
     46 H24         -3.5010    -0.2170    -1.6670 ha         1 5TG       0.133000
     47 H25         -1.0770    -0.1530    -1.6420 ha         1 5TG       0.132000
     48 H26         -5.5610    -1.8910    -1.2190 h1         1 5TG       0.066200
     49 H27         -5.5420    -2.6690     0.3500 h1         1 5TG       0.066200
     50 N2          -5.7640    -0.6090     0.4000 n          1 5TG      -0.469800
     51 C20         -6.2510     0.3770    -0.3910 c          1 5TG       0.768100
     52 C19         -5.5530    -0.4260     1.8230 c3         1 5TG       0.104300
     53 O3          -6.6000     1.4350     0.3370 os         1 5TG      -0.450900
     54 C22         -7.2130     2.6210    -0.2320 c3         1 5TG       0.200800
     55 O1          -6.3600     0.2950    -1.6010 o          1 5TG      -0.604000
     56 C21         -8.5550     2.2900    -0.8710 c3         1 5TG      -0.108100
     57 C23         -7.4280     3.5080     0.9890 c3         1 5TG      -0.108100
     58 C24         -6.2690     3.3130    -1.2070 c3         1 5TG      -0.108100
     59 H28         -4.7450     0.2740     2.0430 h1         1 5TG       0.038033
     60 H29         -6.4560    -0.0810     2.3220 h1         1 5TG       0.038033
     61 H30         -5.2850    -1.3880     2.2560 h1         1 5TG       0.038033
     62 H31         -9.2030     1.7620    -0.1690 hc         1 5TG       0.048700
     63 H32         -9.0580     3.2160    -1.1520 hc         1 5TG       0.048700
     64 H33         -8.4510     1.6870    -1.7700 hc         1 5TG       0.048700
     65 H34         -6.4800     3.7570     1.4680 hc         1 5TG       0.048700
     66 H35         -7.9060     4.4410     0.6910 hc         1 5TG       0.048700
     67 H36         -8.0710     3.0220     1.7240 hc         1 5TG       0.048700
     68 H37         -6.1080     2.7360    -2.1140 hc         1 5TG       0.048700
     69 H38         -6.6960     4.2750    -1.4920 hc         1 5TG       0.048700
     70 H39         -5.3030     3.5090    -0.7390 hc         1 5TG       0.048700
@<TRIPOS>BOND
     1     1     2 1   
     2     1     4 1   
     3     1     5 1   
     4     2     7 1   
     5     2    23 1   
     6     2    24 1   
     7     3     4 2   
     8     4     8 1   
     9     5     6 1   
    10     5    25 1   
    11     5    26 1   
    12     6     7 1   
    13     6    27 1   
    14     6    28 1   
    15     7    29 1   
    16     7    30 1   
    17     8     9 1   
    18     8    31 1   
    19     8    32 1   
    20     9    10 1   
    21     9    33 1   
    22     9    34 1   
    23    10    11 1   
    24    10    15 1   
    25    10    35 1   
    26    11    12 1   
    27    11    36 1   
    28    11    37 1   
    29    12    13 1   
    30    12    38 1   
    31    12    39 1   
    32    13    14 1   
    33    13    16 1   
    34    14    15 1   
    35    14    40 1   
    36    14    41 1   
    37    15    42 1   
    38    15    43 1   
    39    16    17 ar  
    40    16    21 ar  
    41    17    18 ar  
    42    17    44 1   
    43    18    19 ar  
    44    18    45 1   
    45    19    20 ar  
    46    19    22 1   
    47    20    21 ar  
    48    20    46 1   
    49    21    47 1   
    50    22    48 1   
    51    22    49 1   
    52    22    50 1   
    53    50    51 1   
    54    50    52 1   
    55    51    53 1   
    56    51    55 2   
    57    52    59 1   
    58    52    60 1   
    59    52    61 1   
    60    53    54 1   
    61    54    56 1   
    62    54    57 1   
    63    54    58 1   
    64    56    62 1   
    65    56    63 1   
    66    56    64 1   
    67    57    65 1   
    68    57    66 1   
    69    57    67 1   
    70    58    68 1   
    71    58    69 1   
    72    58    70 1   
@<TRIPOS>SUBSTRUCTURE
     1 5TG         1 TEMP              0 ****  ****    0 ROOT
