@<TRIPOS>MOLECULE
5TG
   70    72     1     0     0
SMALL
No Charge or Current Charge


@<TRIPOS>ATOM
      1 N            8.0590     0.9140    -0.1260 n          1 5TG      -0.421800
      2 C            9.4690     0.9590    -0.5700 c5         1 5TG       0.103000
      3 O2           7.7030    -1.2400    -0.8070 o          1 5TG      -0.609100
      4 C4           7.2470    -0.2250    -0.2940 c          1 5TG       0.604100
      5 C3           7.6080     2.1760     0.5020 c5         1 5TG       0.103000
      6 C2           8.9530     2.9130     0.7290 c5         1 5TG      -0.094900
      7 C1           9.7650     2.4800    -0.5160 c5         1 5TG      -0.094900
      8 C5           5.7800    -0.1500     0.1820 c3         1 5TG      -0.152400
      9 C6           4.9130    -1.4040    -0.1020 c3         1 5TG      -0.061400
     10 C7           3.4670    -1.3580     0.4820 c6         1 5TG      -0.062700
     11 C11          2.7390    -2.7130     0.2710 c6         1 5TG      -0.078900
     12 C10          1.2980    -2.6860     0.8360 c6         1 5TG       0.197300
     13 N1           0.5160    -1.5570     0.2590 nh         1 5TG      -0.783400
     14 C9           1.1630    -0.2290     0.4460 c6         1 5TG       0.197300
     15 C8           2.6030    -0.2180    -0.1250 c6         1 5TG      -0.078900
     16 C12         -0.8900    -1.6370     0.1200 ca         1 5TG       0.297000
     17 C17         -1.6710    -2.4260     0.9880 ca         1 5TG      -0.164500
     18 C16         -3.0670    -2.4920     0.8350 ca         1 5TG      -0.068000
     19 C15         -3.7020    -1.7700    -0.1920 ca         1 5TG      -0.152300
     20 C14         -2.9270    -0.9820    -1.0620 ca         1 5TG      -0.068000
     21 C13         -1.5320    -0.9180    -0.9050 ca         1 5TG      -0.164500
     22 C18         -5.2160    -1.8320    -0.3570 c3         1 5TG       0.161300
     23 H1          10.1090     0.3980     0.1240 h1         1 5TG       0.049450
     24 H2           9.6050     0.5510    -1.5800 h1         1 5TG       0.049450
     25 H3           6.9530     2.7350    -0.1800 h1         1 5TG       0.049450
     26 H4           7.0740     2.0130     1.4480 h1         1 5TG       0.049450
     27 H5           8.8290     3.9990     0.8020 hc         1 5TG       0.053950
     28 H6           9.4370     2.5740     1.6530 hc         1 5TG       0.053950
     29 H7          10.8350     2.6950    -0.4250 hc         1 5TG       0.053950
     30 H8           9.4030     2.9840    -1.4200 hc         1 5TG       0.053950
     31 H9           5.7890     0.0940     1.2500 hc         1 5TG       0.054200
     32 H10          5.3420     0.7590    -0.2430 hc         1 5TG       0.054200
     33 H11          4.8700    -1.5620    -1.1880 hc         1 5TG       0.058200
     34 H12          5.4340    -2.2760     0.3110 hc         1 5TG       0.058200
     35 H13          3.5700    -1.1850     1.5630 hc         1 5TG       0.041700
     36 H14          2.7020    -2.9540    -0.8010 hc         1 5TG       0.049700
     37 H15          3.3010    -3.5240     0.7530 hc         1 5TG       0.049700
     38 H16          0.8140    -3.6450     0.6000 h1         1 5TG       0.036200
     39 H17          1.3370    -2.5940     1.9320 h1         1 5TG       0.036200
     40 H18          0.5830     0.5630    -0.0500 h1         1 5TG       0.036200
     41 H19          1.1970     0.0180     1.5170 h1         1 5TG       0.036200
     42 H20          3.0530     0.7610     0.0830 hc         1 5TG       0.049700
     43 H21          2.5610    -0.3190    -1.2180 hc         1 5TG       0.049700
     44 H22         -1.2030    -2.9820     1.7950 ha         1 5TG       0.114000
     45 H23         -3.6530    -3.1020     1.5200 ha         1 5TG       0.115000
     46 H24         -3.4050    -0.4180    -1.8610 ha         1 5TG       0.115000
     47 H25         -0.9460    -0.3140    -1.5900 ha         1 5TG       0.114000
     48 H26         -5.4630    -1.8830    -1.4250 h1         1 5TG       0.066200
     49 H27         -5.5950    -2.7600     0.0920 h1         1 5TG       0.066200
     50 N2          -5.9050    -0.6830     0.2660 n          1 5TG      -0.402800
     51 C20         -6.2810     0.4350    -0.5020 c          1 5TG       0.652100
     52 C19         -6.1290    -0.7290     1.7290 c3         1 5TG       0.104300
     53 O3          -6.8730     1.4020     0.2770 os         1 5TG      -0.474100
     54 C22         -7.3420     2.6620    -0.2570 c3         1 5TG       0.224000
     55 O1          -6.0950     0.5090    -1.7070 o          1 5TG      -0.555000
     56 C21         -8.4720     2.4060    -1.2890 c3         1 5TG      -0.108100
     57 C23         -7.9130     3.4040     0.9730 c3         1 5TG      -0.108100
     58 C24         -6.1480     3.4570    -0.8440 c3         1 5TG      -0.108100
     59 H28         -5.5880     0.0940     2.2120 h1         1 5TG       0.038033
     60 H29         -7.2010    -0.6340     1.9430 h1         1 5TG       0.038033
     61 H30         -5.7690    -1.6790     2.1440 h1         1 5TG       0.038033
     62 H31         -9.2090     1.6990    -0.8910 hc         1 5TG       0.048700
     63 H32         -8.9920     3.3420    -1.5230 hc         1 5TG       0.048700
     64 H33         -8.0830     2.0080    -2.2320 hc         1 5TG       0.048700
     65 H34         -7.1360     3.5530     1.7330 hc         1 5TG       0.048700
     66 H35         -8.3040     4.3880     0.6880 hc         1 5TG       0.048700
     67 H36         -8.7310     2.8320     1.4280 hc         1 5TG       0.048700
     68 H37         -5.8030     3.0380    -1.7950 hc         1 5TG       0.048700
     69 H38         -6.4390     4.4970    -1.0370 hc         1 5TG       0.048700
     70 H39         -5.3040     3.4670    -0.1440 hc         1 5TG       0.048700
@<TRIPOS>BOND
     1     1     2 1   
     2     1     4 1   
     3     1     5 1   
     4     2     7 1   
     5     2    23 1   
     6     2    24 1   
     7     3     4 2   
     8     4     8 1   
     9     5     6 1   
    10     5    25 1   
    11     5    26 1   
    12     6     7 1   
    13     6    27 1   
    14     6    28 1   
    15     7    29 1   
    16     7    30 1   
    17     8     9 1   
    18     8    31 1   
    19     8    32 1   
    20     9    10 1   
    21     9    33 1   
    22     9    34 1   
    23    10    11 1   
    24    10    15 1   
    25    10    35 1   
    26    11    12 1   
    27    11    36 1   
    28    11    37 1   
    29    12    13 1   
    30    12    38 1   
    31    12    39 1   
    32    13    14 1   
    33    13    16 1   
    34    14    15 1   
    35    14    40 1   
    36    14    41 1   
    37    15    42 1   
    38    15    43 1   
    39    16    17 ar  
    40    16    21 ar  
    41    17    18 ar  
    42    17    44 1   
    43    18    19 ar  
    44    18    45 1   
    45    19    20 ar  
    46    19    22 1   
    47    20    21 ar  
    48    20    46 1   
    49    21    47 1   
    50    22    48 1   
    51    22    49 1   
    52    22    50 1   
    53    50    51 1   
    54    50    52 1   
    55    51    53 1   
    56    51    55 2   
    57    52    59 1   
    58    52    60 1   
    59    52    61 1   
    60    53    54 1   
    61    54    56 1   
    62    54    57 1   
    63    54    58 1   
    64    56    62 1   
    65    56    63 1   
    66    56    64 1   
    67    57    65 1   
    68    57    66 1   
    69    57    67 1   
    70    58    68 1   
    71    58    69 1   
    72    58    70 1   
@<TRIPOS>SUBSTRUCTURE
     1 5TG         1 TEMP              0 ****  ****    0 ROOT
