@<TRIPOS>MOLECULE
5TH
   29    29     1     0     0
SMALL
bcc


@<TRIPOS>ATOM
      1 C1           0.6480     1.5920    -0.2510 c6         1 5TH       0.315900
      2 C2           0.7490     0.0950     0.0130 c6         1 5TH       0.158100
      3 O2           1.8500    -0.4630    -0.6850 os         1 5TH      -0.562500
      4 C3          -0.5080    -0.6420    -0.4420 c6         1 5TH       0.116100
      5 C4          -1.7370     0.0110     0.1830 c6         1 5TH       0.101100
      6 C5          -1.7260     1.5260    -0.0530 c6         1 5TH       0.155100
      7 C6          -2.8340     2.2130     0.7210 c3         1 5TH       0.143400
      8 O3          -0.4500    -1.9930    -0.0270 oh         1 5TH      -0.636800
      9 O4          -2.9490    -0.4690    -0.4050 os         1 5TH      -0.392600
     10 O5          -0.5020     2.0810     0.3880 os         1 5TH      -0.433600
     11 O11         -2.8250     3.5810     0.3950 oh         1 5TH      -0.587800
     12 S1           3.1830    -0.8840     0.1970 s6         1 5TH       1.488300
     13 S2          -3.5300    -1.9170     0.1240 ss         1 5TH       0.266600
     14 O7           2.7410    -1.9880     1.0520 o          1 5TH      -0.701200
     15 O8           4.1020    -1.2650    -0.8700 o          1 5TH      -0.701200
     16 O9           3.5560     0.3230     0.9380 o          1 5TH      -0.701200
     17 O07         -2.8340    -3.0070    -0.8750 oh         1 5TH      -0.567800
     18 H1           1.4820     2.1100     0.2330 h2         1 5TH       0.098700
     19 H3           0.8490    -0.0430     1.0960 h1         1 5TH       0.070700
     20 H4          -0.5950    -0.5730    -1.5350 h1         1 5TH       0.073700
     21 H5          -1.7390    -0.1940     1.2620 h1         1 5TH       0.064700
     22 H6          -1.8720     1.7140    -1.1250 h1         1 5TH       0.070700
     23 H7          -3.7880     1.7430     0.4570 h1         1 5TH       0.028200
     24 H8          -2.6760     2.0450     1.7950 h1         1 5TH       0.028200
     25 H9           0.3770    -2.3780    -0.3410 ho         1 5TH       0.453000
     26 H10         -3.5770     3.9950     0.8270 ho         1 5TH       0.392000
     27 H11         -1.8940    -3.0740    -0.6130 ho         1 5TH       0.449000
     28 O1           0.6400     1.8030    -1.6210 oh         1 5TH      -0.589800
     29 HO1          0.7900     2.7380    -1.7970 ho         1 5TH       0.403000
@<TRIPOS>BOND
     1     1     2 1   
     2     1    10 1   
     3     1    18 1   
     4     1    28 1   
     5     2     3 1   
     6     2     4 1   
     7     2    19 1   
     8     3    12 1   
     9     4     5 1   
    10     4     8 1   
    11     4    20 1   
    12     5     6 1   
    13     5     9 1   
    14     5    21 1   
    15     6     7 1   
    16     6    10 1   
    17     6    22 1   
    18     7    11 1   
    19     7    23 1   
    20     7    24 1   
    21     8    25 1   
    22     9    13 1   
    23    11    26 1   
    24    12    14 1   
    25    12    15 1   
    26    12    16 1   
    27    13    17 1   
    28    17    27 1   
    29    28    29 1   
@<TRIPOS>SUBSTRUCTURE
     1 5TH         1 TEMP              0 ****  ****    0 ROOT
