@<TRIPOS>MOLECULE
5TH
   29    29     1     0     0
SMALL
No Charge or Current Charge


@<TRIPOS>ATOM
      1 C1           0.7200     1.5130    -0.2220 c6         1 5TH       0.362300
      2 C2           0.7690    -0.0420     0.0080 c6         1 5TH       0.181300
      3 O2           1.9000    -0.6870    -0.6370 os         1 5TH      -0.585700
      4 C3          -0.5440    -0.6780    -0.5360 c6         1 5TH       0.139300
      5 C4          -1.7970    -0.0130     0.1400 c6         1 5TH       0.124300
      6 C5          -1.7310     1.5270    -0.0960 c6         1 5TH       0.178300
      7 C6          -2.8940     2.2850     0.6290 c3         1 5TH       0.166600
      8 O3          -0.4770    -2.1140    -0.3750 oh         1 5TH      -0.699000
      9 O4          -3.0580    -0.5300    -0.3630 os         1 5TH      -0.415800
     10 O5          -0.4650     2.0650     0.3850 os         1 5TH      -0.480000
     11 O11         -2.8360     3.7170     0.4660 oh         1 5TH      -0.710000
     12 S1           3.2920    -0.8560     0.2190 s6         1 5TH       1.488300
     13 S2          -3.5790    -1.9770     0.3800 ss         1 5TH       0.266600
     14 O7           2.9680    -1.9100     1.1890 o          1 5TH      -0.701200
     15 O8           4.2830    -1.2450    -0.7930 o          1 5TH      -0.701200
     16 O9           3.5140     0.4670     0.8180 o          1 5TH      -0.701200
     17 O07         -2.9330    -3.1460    -0.6390 oh         1 5TH      -0.606800
     18 H1           1.6020     1.9620     0.2620 h2         1 5TH       0.098700
     19 H3           0.8100    -0.2310     1.0920 h1         1 5TH       0.070700
     20 H4          -0.5970    -0.4460    -1.6100 h1         1 5TH       0.073700
     21 H5          -1.7550    -0.1870     1.2250 h1         1 5TH       0.064700
     22 H6          -1.8250     1.7280    -1.1730 h1         1 5TH       0.070700
     23 H7          -3.8480     1.9070     0.2390 h1         1 5TH       0.028200
     24 H8          -2.8550     2.0280     1.6960 h1         1 5TH       0.028200
     25 H9           0.4800    -2.3270    -0.5030 ho         1 5TH       0.492000
     26 H10         -3.5620     4.0980     1.0130 ho         1 5TH       0.491000
     27 H11         -1.9550    -2.9730    -0.5680 ho         1 5TH       0.488000
     28 O1           0.7020     1.8830    -1.6030 oh         1 5TH      -0.652000
     29 HO1          0.6040     2.8580    -1.6040 ho         1 5TH       0.442000
@<TRIPOS>BOND
     1     1     2 1   
     2     1    10 1   
     3     1    18 1   
     4     1    28 1   
     5     2     3 1   
     6     2     4 1   
     7     2    19 1   
     8     3    12 1   
     9     4     5 1   
    10     4     8 1   
    11     4    20 1   
    12     5     6 1   
    13     5     9 1   
    14     5    21 1   
    15     6     7 1   
    16     6    10 1   
    17     6    22 1   
    18     7    11 1   
    19     7    23 1   
    20     7    24 1   
    21     8    25 1   
    22     9    13 1   
    23    11    26 1   
    24    12    14 1   
    25    12    15 1   
    26    12    16 1   
    27    13    17 1   
    28    17    27 1   
    29    28    29 1   
@<TRIPOS>SUBSTRUCTURE
     1 5TH         1 TEMP              0 ****  ****    0 ROOT
