@<TRIPOS>MOLECULE
5TI
   32    33     1     0     0
SMALL
No Charge or Current Charge


@<TRIPOS>ATOM
      1 C14         22.6860    16.8720    23.6040 c3         1 5TI       0.146900
      2 C12         22.8430    15.0130    25.2190 ca         1 5TI       0.167100
      3 C4          26.7630     9.7810    28.2160 c          1 5TI       0.599700
      4 C3          25.3030     9.6200    28.3510 cc         1 5TI      -0.318400
      5 C11         22.2970    14.0770    24.3150 ca         1 5TI      -0.179500
      6 C13         23.2100    14.5930    26.5070 ca         1 5TI      -0.179500
      7 C5          24.4530    10.4300    27.6320 cf         1 5TI       0.019000
      8 C8          22.5120    12.3130    25.9910 ca         1 5TI      -0.138800
      9 C1          27.1060     7.9900    29.8300 c          1 5TI       0.635000
     10 C2          24.8070     8.6070    29.3060 c          1 5TI       0.599700
     11 O19         27.8760     7.2870    30.4540 o          1 5TI      -0.541000
     12 O17         23.6320     8.3980    29.5550 o          1 5TI      -0.525500
     13 C10         23.0430    13.2530    26.8960 ca         1 5TI      -0.043000
     14 C6          23.1340    10.0760    27.1100 cf         1 5TI      -0.246000
     15 C9          22.1300    12.7360    24.7040 ca         1 5TI      -0.043000
     16 N15         25.7670     7.8890    29.9400 ns         1 5TI      -0.476500
     17 N16         27.5160     8.9430    28.9700 ns         1 5TI      -0.476500
     18 O18         23.0310    16.3410    24.8960 os         1 5TI      -0.334100
     19 H1          22.9160    17.9440    23.5590 h1         1 5TI       0.044700
     20 H2          23.2540    16.3690    22.8110 h1         1 5TI       0.044700
     21 H3          21.6140    16.7470    23.4040 h1         1 5TI       0.044700
     22 H5          21.9980    14.3690    23.3120 ha         1 5TI       0.128500
     23 H6          23.6220    15.3130    27.2100 ha         1 5TI       0.128500
     24 H7          21.3810    10.4600    26.0170 ha         1 5TI       0.179000
     25 H9          24.9380    11.2560    27.1050 ha         1 5TI       0.202000
     26 H11         23.3140    12.9520    27.9050 ha         1 5TI       0.117500
     27 H12         22.7880     9.0570    27.2870 ha         1 5TI       0.215000
     28 H14         21.7080    12.0220    23.9990 ha         1 5TI       0.117500
     29 H15         25.4350     7.1910    30.5870 hn         1 5TI       0.347000
     30 H16         28.5140     9.0450    28.8750 hn         1 5TI       0.347000
     31 C7          22.3150    10.8910    26.3850 ce         1 5TI      -0.058200
     32 O20         27.3000    10.5950    27.4840 o          1 5TI      -0.525500
@<TRIPOS>BOND
     1     1    18 1   
     2     1    19 1   
     3     1    20 1   
     4     1    21 1   
     5     2     5 ar  
     6     2     6 ar  
     7     2    18 1   
     8     3     4 1   
     9     3    17 1   
    10     3    32 2   
    11     4     7 2   
    12     4    10 1   
    13     5    15 ar  
    14     5    22 1   
    15     6    13 ar  
    16     6    23 1   
    17     7    14 1   
    18     7    25 1   
    19     8    13 ar  
    20     8    15 ar  
    21     8    31 1   
    22     9    11 2   
    23     9    16 1   
    24     9    17 1   
    25    10    12 2   
    26    10    16 1   
    27    13    26 1   
    28    14    27 1   
    29    14    31 2   
    30    15    28 1   
    31    16    29 1   
    32    17    30 1   
    33    24    31 1   
@<TRIPOS>SUBSTRUCTURE
     1 5TI         1 TEMP              0 ****  ****    0 ROOT
