@<TRIPOS>MOLECULE
5TI
   32    33     1     0     0
SMALL
bcc


@<TRIPOS>ATOM
      1 C14         22.7240    16.7560    23.6850 c3         1 5TI       0.123700
      2 C12         23.0040    14.9330    25.1760 ca         1 5TI       0.167100
      3 C4          26.6270    10.0270    28.3490 c          1 5TI       0.742200
      4 C3          25.2290     9.5770    28.2520 cc         1 5TI      -0.318400
      5 C11         22.1790    14.0950    24.4220 ca         1 5TI      -0.197500
      6 C13         23.5650    14.4530    26.3650 ca         1 5TI      -0.197500
      7 C5          24.4070    10.2860    27.4270 cf         1 5TI       0.069000
      8 C8          22.5440    12.2850    26.0060 ca         1 5TI      -0.138800
      9 C1          27.0750     8.1890    29.9220 c          1 5TI       0.844500
     10 C2          24.7840     8.4260    29.0410 c          1 5TI       0.742200
     11 O19         27.8560     7.5940    30.6260 o          1 5TI      -0.616500
     12 O17         23.6510     7.9910    29.0640 o          1 5TI      -0.601000
     13 C10         23.3350    13.1570    26.7710 ca         1 5TI      -0.061000
     14 C6          23.0500    10.0360    27.0660 cf         1 5TI      -0.196000
     15 C9          21.9480    12.8010    24.8490 ca         1 5TI      -0.061000
     16 N15         25.7600     7.8190    29.8030 ns         1 5TI      -0.610500
     17 N16         27.4340     9.2870    29.1820 ns         1 5TI      -0.610500
     18 O18         23.2920    16.1980    24.8550 os         1 5TI      -0.310900
     19 H1          23.0890    17.7780    23.6250 h1         1 5TI       0.044700
     20 H2          23.0340    16.2170    22.7860 h1         1 5TI       0.044700
     21 H3          21.6330    16.7730    23.7320 h1         1 5TI       0.044700
     22 H5          21.7070    14.4370    23.5110 ha         1 5TI       0.146500
     23 H6          24.1660    15.1150    26.9740 ha         1 5TI       0.146500
     24 H7          21.3340    10.5160    26.0030 ha         1 5TI       0.129000
     25 H9          24.8800    11.1280    26.9340 ha         1 5TI       0.152000
     26 H11         23.7390    12.8360    27.7230 ha         1 5TI       0.135500
     27 H12         22.6170     9.0760    27.3000 ha         1 5TI       0.165000
     28 H14         21.3020    12.1640    24.2580 ha         1 5TI       0.135500
     29 H15         25.4740     7.0180    30.3530 hn         1 5TI       0.347000
     30 H16         28.4010     9.5780    29.2620 hn         1 5TI       0.347000
     31 C7          22.2840    10.9050    26.3590 ce         1 5TI      -0.008200
     32 O20         27.0830    10.9820    27.7540 o          1 5TI      -0.601000
@<TRIPOS>BOND
     1     1    18 1   
     2     1    19 1   
     3     1    20 1   
     4     1    21 1   
     5     2     5 ar  
     6     2     6 ar  
     7     2    18 1   
     8     3     4 1   
     9     3    17 1   
    10     3    32 2   
    11     4     7 2   
    12     4    10 1   
    13     5    15 ar  
    14     5    22 1   
    15     6    13 ar  
    16     6    23 1   
    17     7    14 1   
    18     7    25 1   
    19     8    13 ar  
    20     8    15 ar  
    21     8    31 1   
    22     9    11 2   
    23     9    16 1   
    24     9    17 1   
    25    10    12 2   
    26    10    16 1   
    27    13    26 1   
    28    14    27 1   
    29    14    31 2   
    30    15    28 1   
    31    16    29 1   
    32    17    30 1   
    33    24    31 1   
@<TRIPOS>SUBSTRUCTURE
     1 5TI         1 TEMP              0 ****  ****    0 ROOT
