@<TRIPOS>MOLECULE
5TJ
   29    29     1     0     0
SMALL
abcg2


@<TRIPOS>ATOM
      1 C1           0.4080     2.7570    -0.3370 c6         1 5TJ       0.344300
      2 C2          -0.5800     1.6810    -0.7980 c6         1 5TJ       0.149300
      3 O2          -1.9130     2.0720    -0.6310 oh         1 5TJ      -0.664000
      4 C3          -0.3480     0.4010    -0.0090 c6         1 5TJ       0.234300
      5 O3          -1.1690    -0.6150    -0.5680 os         1 5TJ      -0.603700
      6 C4           1.1150    -0.0170    -0.1040 c6         1 5TJ       0.110300
      7 O4           1.3060    -1.0870     0.8160 os         1 5TJ      -0.403800
      8 C5           2.0470     1.1390     0.2710 c6         1 5TJ       0.157300
      9 O6           1.7230     2.2880    -0.4890 os         1 5TJ      -0.485000
     10 C51          3.4930     0.8000    -0.0240 c3         1 5TJ       0.163600
     11 O52          4.3060     1.8500     0.4400 oh         1 5TJ      -0.716000
     12 S3          -2.2060    -1.4940     0.3470 s6         1 5TJ       1.510300
     13 S4           1.8970    -2.5270     0.2790 ss         1 5TJ       0.240600
     14 O33         -1.4270    -2.6500     0.8440 o          1 5TJ      -0.698533
     15 O32         -2.6700    -0.6250     1.4240 o          1 5TJ      -0.698533
     16 O31         -3.2090    -1.8650    -0.6440 o          1 5TJ      -0.698533
     17 O41          0.7100    -3.1200    -0.6720 oh         1 5TJ      -0.633800
     18 O1           0.1050     3.1050     0.9720 oh         1 5TJ      -0.648000
     19 H1           0.3470     3.6250    -1.0060 h2         1 5TJ       0.042700
     20 H2          -0.3510     1.4790    -1.8540 h1         1 5TJ       0.046700
     21 H3          -2.1210     2.7390    -1.2920 ho         1 5TJ       0.484000
     22 H4          -0.6020     0.5710     1.0430 h1         1 5TJ       0.098700
     23 H5           1.3330    -0.3380    -1.1320 h1         1 5TJ       0.067700
     24 H6           1.9410     1.3390     1.3460 h1         1 5TJ       0.072700
     25 H7           3.7400    -0.1450     0.4710 h1         1 5TJ       0.030700
     26 H8           3.6080     0.6370    -1.1050 h1         1 5TJ       0.030700
     27 H9           5.2230     1.6000     0.2990 ho         1 5TJ       0.491000
     28 H10         -0.1110    -3.2090    -0.1310 ho         1 5TJ       0.536000
     29 H11          0.5890     3.9030     1.2070 ho         1 5TJ       0.439000
@<TRIPOS>BOND
     1     1     2 1   
     2     1     9 1   
     3     1    18 1   
     4     1    19 1   
     5     2     3 1   
     6     2     4 1   
     7     2    20 1   
     8     3    21 1   
     9     4     5 1   
    10     4     6 1   
    11     4    22 1   
    12     5    12 1   
    13     6     7 1   
    14     6     8 1   
    15     6    23 1   
    16     7    13 1   
    17     8     9 1   
    18     8    10 1   
    19     8    24 1   
    20    10    11 1   
    21    10    25 1   
    22    10    26 1   
    23    11    27 1   
    24    12    14 1   
    25    12    15 1   
    26    12    16 1   
    27    13    17 1   
    28    17    28 1   
    29    18    29 1   
@<TRIPOS>SUBSTRUCTURE
     1 5TJ         1 TEMP              0 ****  ****    0 ROOT
