@<TRIPOS>MOLECULE
5TJ
   29    29     1     0     0
SMALL
No Charge or Current Charge


@<TRIPOS>ATOM
      1 C1           0.3760     2.8290    -0.4460 c6         1 5TJ       0.344300
      2 C2          -0.6620     1.7350    -0.8800 c6         1 5TJ       0.149300
      3 O2          -2.0280     2.2330    -0.8550 oh         1 5TJ      -0.664000
      4 C3          -0.4970     0.4400    -0.0140 c6         1 5TJ       0.234300
      5 O3          -1.3930    -0.5860    -0.5350 os         1 5TJ      -0.603700
      6 C4           0.9960    -0.0350    -0.0740 c6         1 5TJ       0.110300
      7 O4           1.1920    -1.1630     0.8110 os         1 5TJ      -0.403800
      8 C5           1.9540     1.1300     0.3230 c6         1 5TJ       0.157300
      9 O6           1.7070     2.2980    -0.5090 os         1 5TJ      -0.485000
     10 C51          3.4670     0.7470     0.1860 c3         1 5TJ       0.163600
     11 O52          4.3650     1.8340     0.4880 oh         1 5TJ      -0.716000
     12 S3          -2.1530    -1.6430     0.4730 s6         1 5TJ       1.510300
     13 S4           2.0710    -2.4640     0.1410 ss         1 5TJ       0.240600
     14 O33         -1.3420    -2.8650     0.3560 o          1 5TJ      -0.698533
     15 O32         -2.1240    -1.0200     1.8030 o          1 5TJ      -0.698533
     16 O31         -3.4970    -1.7660    -0.1080 o          1 5TJ      -0.698533
     17 O41          0.9340    -3.1760    -0.8760 oh         1 5TJ      -0.633800
     18 O1           0.1680     3.2980     0.8850 oh         1 5TJ      -0.648000
     19 H1           0.3050     3.6790    -1.1420 h2         1 5TJ       0.042700
     20 H2          -0.4090     1.4610    -1.9160 h1         1 5TJ       0.046700
     21 H3          -2.0680     3.0070    -1.4620 ho         1 5TJ       0.484000
     22 H4          -0.7500     0.7110     1.0200 h1         1 5TJ       0.098700
     23 H5           1.2140    -0.3390    -1.1090 h1         1 5TJ       0.067700
     24 H6           1.7780     1.3910     1.3770 h1         1 5TJ       0.072700
     25 H7           3.6710    -0.0950     0.8610 h1         1 5TJ       0.030700
     26 H8           3.6370     0.3910    -0.8390 h1         1 5TJ       0.030700
     27 H9           5.2780     1.5140     0.2990 ho         1 5TJ       0.491000
     28 H10          0.0780    -3.1570    -0.3530 ho         1 5TJ       0.536000
     29 H11          0.9180     3.9040     1.0590 ho         1 5TJ       0.439000
@<TRIPOS>BOND
     1     1     2 1   
     2     1     9 1   
     3     1    18 1   
     4     1    19 1   
     5     2     3 1   
     6     2     4 1   
     7     2    20 1   
     8     3    21 1   
     9     4     5 1   
    10     4     6 1   
    11     4    22 1   
    12     5    12 1   
    13     6     7 1   
    14     6     8 1   
    15     6    23 1   
    16     7    13 1   
    17     8     9 1   
    18     8    10 1   
    19     8    24 1   
    20    10    11 1   
    21    10    25 1   
    22    10    26 1   
    23    11    27 1   
    24    12    14 1   
    25    12    15 1   
    26    12    16 1   
    27    13    17 1   
    28    17    28 1   
    29    18    29 1   
@<TRIPOS>SUBSTRUCTURE
     1 5TJ         1 TEMP              0 ****  ****    0 ROOT
