@<TRIPOS>MOLECULE
5TK
   26    26     1     0     0
SMALL
No Charge or Current Charge


@<TRIPOS>ATOM
      1 SA          -2.9180     0.9800     0.1690 ss         1 5TK       0.326600
      2 C1           2.5340    -0.0010    -0.3890 c6         1 5TK       0.359300
      3 C2           1.7740     1.3510    -0.6050 c6         1 5TK       0.115300
      4 O2S         -3.7450    -0.1550    -0.7670 oh         1 5TK      -0.611800
      5 C3           0.4720     1.3920     0.2490 c6         1 5TK       0.158300
      6 C4          -0.4080     0.1260    -0.0300 c6         1 5TK       0.132300
      7 C5           0.4510    -1.1490     0.2150 c6         1 5TK       0.165300
      8 C6          -0.3350    -2.4610    -0.1180 c3         1 5TK       0.169600
      9 O2           2.6130     2.4870    -0.2900 oh         1 5TK      -0.705000
     10 O3          -0.2180     2.6320    -0.0080 oh         1 5TK      -0.718000
     11 O4          -1.6000     0.0890     0.7950 os         1 5TK      -0.408800
     12 O5           1.6550    -1.1160    -0.6080 os         1 5TK      -0.470000
     13 O1           3.0420    -0.1060     0.9380 oh         1 5TK      -0.719000
     14 H1           3.3670    -0.0570    -1.1070 h2         1 5TK       0.062700
     15 H2           1.4840     1.3950    -1.6660 h1         1 5TK       0.053700
     16 H3          -4.3990    -0.5670    -0.1640 ho         1 5TK       0.456000
     17 H4           0.7670     1.3520     1.3100 h1         1 5TK       0.076700
     18 H5          -0.7120     0.1250    -1.0870 h1         1 5TK       0.073700
     19 H6           0.7360    -1.1920     1.2760 h1         1 5TK       0.076700
     20 H7          -1.2230    -2.5030     0.5270 h1         1 5TK       0.033200
     21 H8          -0.6900    -2.3910    -1.1550 h1         1 5TK       0.033200
     22 H9           3.1920     2.1870     0.4530 ho         1 5TK       0.509000
     23 H10          0.5050     3.2930    -0.1380 ho         1 5TK       0.523000
     24 H11         -0.1060    -4.4140    -0.2460 ho         1 5TK       0.504000
     25 H12          3.4010    -1.0190     0.9960 ho         1 5TK       0.518000
     26 O6           0.4510    -3.6580     0.0560 oh         1 5TK      -0.711000
@<TRIPOS>BOND
     1     1     4 1   
     2     1    11 1   
     3     2     3 1   
     4     2    12 1   
     5     2    13 1   
     6     2    14 1   
     7     3     5 1   
     8     3     9 1   
     9     3    15 1   
    10     4    16 1   
    11     5     6 1   
    12     5    10 1   
    13     5    17 1   
    14     6     7 1   
    15     6    11 1   
    16     6    18 1   
    17     7     8 1   
    18     7    12 1   
    19     7    19 1   
    20     8    20 1   
    21     8    21 1   
    22     8    26 1   
    23     9    22 1   
    24    10    23 1   
    25    13    25 1   
    26    24    26 1   
@<TRIPOS>SUBSTRUCTURE
     1 5TK         1 TEMP              0 ****  ****    0 ROOT
