@<TRIPOS>MOLECULE
5TK
   26    26     1     0     0
SMALL
bcc


@<TRIPOS>ATOM
      1 SA          -2.8870     0.8560     0.0600 ss         1 5TK       0.326600
      2 C1           2.5090    -0.0970    -0.1630 c6         1 5TK       0.312900
      3 C2           1.8550     1.2540    -0.4620 c6         1 5TK       0.092100
      4 O2S         -3.6510    -0.4440    -0.5880 oh         1 5TK      -0.572800
      5 C3           0.5240     1.3700     0.2720 c6         1 5TK       0.135100
      6 C4          -0.3500     0.1830    -0.0880 c6         1 5TK       0.109100
      7 C5           0.3820    -1.1340     0.1780 c6         1 5TK       0.142100
      8 C6          -0.4100    -2.3240    -0.3220 c3         1 5TK       0.146400
      9 O2           2.6590     2.3390    -0.0740 oh         1 5TK      -0.582800
     10 O3          -0.1720     2.5370    -0.0850 oh         1 5TK      -0.595800
     11 O4          -1.5280     0.2160     0.7190 os         1 5TK      -0.385600
     12 O5           1.6220    -1.1320    -0.5070 os         1 5TK      -0.423600
     13 O1           2.8830    -0.1280     1.1730 oh         1 5TK      -0.596800
     14 H1           3.3720    -0.2470    -0.8230 h2         1 5TK       0.062700
     15 H2           1.6530     1.2790    -1.5410 h1         1 5TK       0.053700
     16 H3          -4.1850    -0.8820     0.0890 ho         1 5TK       0.417000
     17 H4           0.7120     1.3440     1.3560 h1         1 5TK       0.076700
     18 H5          -0.6170     0.2400    -1.1520 h1         1 5TK       0.073700
     19 H6           0.5360    -1.2420     1.2610 h1         1 5TK       0.076700
     20 H7          -1.4110    -2.2870     0.1210 h1         1 5TK       0.033200
     21 H8          -0.5350    -2.2390    -1.4100 h1         1 5TK       0.033200
     22 H9           3.3190     2.4960    -0.7560 ho         1 5TK       0.410000
     23 H10          0.3690     3.2940     0.1610 ho         1 5TK       0.424000
     24 H11         -0.2980    -4.2490    -0.1690 ho         1 5TK       0.405000
     25 H12          3.4650    -0.8810     1.3200 ho         1 5TK       0.419000
     26 O6           0.2720    -3.5020     0.0360 oh         1 5TK      -0.588800
@<TRIPOS>BOND
     1     1     4 1   
     2     1    11 1   
     3     2     3 1   
     4     2    12 1   
     5     2    13 1   
     6     2    14 1   
     7     3     5 1   
     8     3     9 1   
     9     3    15 1   
    10     4    16 1   
    11     5     6 1   
    12     5    10 1   
    13     5    17 1   
    14     6     7 1   
    15     6    11 1   
    16     6    18 1   
    17     7     8 1   
    18     7    12 1   
    19     7    19 1   
    20     8    20 1   
    21     8    21 1   
    22     8    26 1   
    23     9    22 1   
    24    10    23 1   
    25    13    25 1   
    26    24    26 1   
@<TRIPOS>SUBSTRUCTURE
     1 5TK         1 TEMP              0 ****  ****    0 ROOT
