@<TRIPOS>MOLECULE
5TL
   43    45     1     0     0
SMALL
bcc


@<TRIPOS>ATOM
      1 O4          -5.9320     0.8520    -1.1640 o          1 5TL      -0.599800
      2 S           -5.4090     0.8730     0.1910 sy         1 5TL       1.286200
      3 O2          -5.5690     2.0590     1.0150 o          1 5TL      -0.599800
      4 N1          -6.1500    -0.3520     0.9950 n8         1 5TL      -0.889700
      5 CAU         -3.6800     0.4890     0.1120 ca         1 5TL      -0.322500
      6 CAN         -3.1910    -0.2420    -0.9630 ca         1 5TL      -0.036000
      7 CAM         -1.8460    -0.5670    -1.0030 ca         1 5TL      -0.145500
      8 CAT         -2.8390     0.9040     1.1350 ca         1 5TL      -0.036000
      9 CAS         -1.4950     0.5700     1.0820 ca         1 5TL      -0.145500
     10 CAR          0.9200    -1.8250    -0.1040 ca         1 5TL       0.276600
     11 CAQ          2.3210    -2.0430    -0.1170 ca         1 5TL      -0.257600
     12 CAV          2.8720    -3.4270    -0.1210 c          1 5TL       0.695700
     13 OAO          2.2300    -4.3890    -0.5370 o          1 5TL      -0.636100
     14 NAW          4.1210    -3.5750     0.3520 nt         1 5TL      -0.663000
     15 CAP          3.1900    -0.9530    -0.1290 ca         1 5TL      -0.033000
     16 CAL         -0.9810    -0.1700     0.0180 cp         1 5TL       0.026000
     17 CAJ          0.4660    -0.4830    -0.0390 cp         1 5TL      -0.166000
     18 CAI          1.3690     0.5620    -0.0170 ca         1 5TL      -0.025000
     19 CAH          2.7490     0.3600    -0.0800 cp         1 5TL      -0.109000
     20 CAG          3.6920     1.4930    -0.1010 cp         1 5TL      -0.021000
     21 CAD          4.9280     1.4120     0.5460 ca         1 5TL      -0.123500
     22 CAC          5.8160     2.4780     0.5220 ca         1 5TL      -0.125000
     23 CAF          3.3740     2.6790    -0.7680 ca         1 5TL      -0.123500
     24 CAE          4.2580     3.7470    -0.7870 ca         1 5TL      -0.125000
     25 CAB          5.4850     3.6510    -0.1430 ca         1 5TL      -0.127000
     26 H1          -6.1010    -1.2460     0.5200 hn         1 5TL       0.420800
     27 H2          -5.8710    -0.4350     1.9670 hn         1 5TL       0.420800
     28 H3          -3.8390    -0.5500    -1.7710 ha         1 5TL       0.155000
     29 H4          -1.4650    -1.1200    -1.8520 ha         1 5TL       0.146500
     30 H5          -3.2140     1.4800     1.9700 ha         1 5TL       0.155000
     31 H6          -0.8410     0.8870     1.8840 ha         1 5TL       0.146500
     32 H7          -0.9190    -2.6850     0.1620 hn         1 5TL       0.444800
     33 H8           0.3670    -3.7850    -0.1290 hn         1 5TL       0.444800
     34 H9           4.5900    -2.8580     0.8770 hn         1 5TL       0.313500
     35 H10          4.5140    -4.5010     0.4060 hn         1 5TL       0.313500
     36 H11          4.2540    -1.1310    -0.2200 ha         1 5TL       0.132000
     37 H12          0.9800     1.5720     0.0420 ha         1 5TL       0.138000
     38 H13          5.1940     0.5160     1.0930 ha         1 5TL       0.128000
     39 H14          6.7660     2.3940     1.0350 ha         1 5TL       0.131500
     40 H15          2.4310     2.7620    -1.2960 ha         1 5TL       0.128000
     41 H16          3.9910     4.6530    -1.3150 ha         1 5TL       0.131500
     42 H17          6.1770     4.4840    -0.1580 ha         1 5TL       0.132000
     43 NAY          0.0260    -2.8390    -0.1410 nv         1 5TL      -0.855200
@<TRIPOS>BOND
     1     1     2 2   
     2     2     3 2   
     3     2     4 1   
     4     2     5 1   
     5     4    26 1   
     6     4    27 1   
     7     5     6 ar  
     8     5     8 ar  
     9     6     7 ar  
    10     6    28 1   
    11     7    16 ar  
    12     7    29 1   
    13     8     9 ar  
    14     8    30 1   
    15     9    16 ar  
    16     9    31 1   
    17    10    11 ar  
    18    10    17 ar  
    19    10    43 1   
    20    11    12 1   
    21    11    15 ar  
    22    12    13 2   
    23    12    14 1   
    24    14    34 1   
    25    14    35 1   
    26    15    19 ar  
    27    15    36 1   
    28    16    17 1   
    29    17    18 ar  
    30    18    19 ar  
    31    18    37 1   
    32    19    20 1   
    33    20    21 ar  
    34    20    23 ar  
    35    21    22 ar  
    36    21    38 1   
    37    22    25 ar  
    38    22    39 1   
    39    23    24 ar  
    40    23    40 1   
    41    24    25 ar  
    42    24    41 1   
    43    25    42 1   
    44    32    43 1   
    45    33    43 1   
@<TRIPOS>SUBSTRUCTURE
     1 5TL         1 TEMP              0 ****  ****    0 ROOT
