@<TRIPOS>MOLECULE
5TL
   43    45     1     0     0
SMALL
No Charge or Current Charge


@<TRIPOS>ATOM
      1 O4          -6.1090     0.7830    -1.2040 o          1 5TL      -0.529000
      2 S           -5.5310     0.8550     0.1380 sy         1 5TL       1.144600
      3 O2          -5.7660     1.9730     1.0490 o          1 5TL      -0.529000
      4 N1          -6.1340    -0.4370     0.9380 n8         1 5TL      -1.000100
      5 CAU         -3.7820     0.4540     0.0980 ca         1 5TL      -0.322500
      6 CAN         -3.2620    -0.3290    -0.9530 ca         1 5TL      -0.018000
      7 CAM         -1.8920    -0.6420    -0.9840 ca         1 5TL      -0.127500
      8 CAT         -2.9190     0.9220     1.1110 ca         1 5TL      -0.018000
      9 CAS         -1.5510     0.6040     1.0700 ca         1 5TL      -0.127500
     10 CAR          0.9450    -1.8350    -0.0290 ca         1 5TL       0.415000
     11 CAQ          2.3350    -2.0920    -0.0810 ca         1 5TL      -0.257600
     12 CAV          2.8850    -3.5030    -0.1330 c          1 5TL       0.628700
     13 OAO          2.2180    -4.4900    -0.4040 o          1 5TL      -0.636100
     14 NAW          4.2020    -3.6770     0.1000 nt         1 5TL      -0.596000
     15 CAP          3.2250    -0.9890    -0.0950 ca         1 5TL      -0.015000
     16 CAL         -1.0150    -0.1910     0.0300 cp         1 5TL       0.026000
     17 CAJ          0.4460    -0.5060    -0.0080 cp         1 5TL      -0.166000
     18 CAI          1.3700     0.5610    -0.0120 ca         1 5TL      -0.007000
     19 CAH          2.7630     0.3470    -0.0550 cp         1 5TL      -0.109000
     20 CAG          3.7210     1.4980    -0.0690 cp         1 5TL      -0.021000
     21 CAD          4.9600     1.4290     0.6170 ca         1 5TL      -0.105500
     22 CAC          5.8590     2.5090     0.6050 ca         1 5TL      -0.107000
     23 CAF          3.4180     2.6940    -0.7690 ca         1 5TL      -0.105500
     24 CAE          4.3170     3.7750    -0.7830 ca         1 5TL      -0.107000
     25 CAB          5.5370     3.6830    -0.0960 ca         1 5TL      -0.109000
     26 H1          -5.2980    -0.8200     1.3720 hn         1 5TL       0.476000
     27 H2          -6.6170     0.0230     1.7050 hn         1 5TL       0.476000
     28 H3          -3.9110    -0.6930    -1.7490 ha         1 5TL       0.137000
     29 H4          -1.5010    -1.2300    -1.8120 ha         1 5TL       0.128500
     30 H5          -3.2990     1.5340     1.9290 ha         1 5TL       0.137000
     31 H6          -0.8960     0.9700     1.8560 ha         1 5TL       0.128500
     32 H7          -0.9260    -2.6880    -0.1180 hn         1 5TL       0.500000
     33 H8           0.4210    -3.8010    -0.1670 hn         1 5TL       0.500000
     34 H9           4.7860    -2.8920     0.3430 hn         1 5TL       0.313500
     35 H10          4.5870    -4.6090     0.0590 hn         1 5TL       0.313500
     36 H11          4.2970    -1.1510    -0.1640 ha         1 5TL       0.114000
     37 H12          0.9890     1.5790     0.0210 ha         1 5TL       0.120000
     38 H13          5.2220     0.5350     1.1770 ha         1 5TL       0.110000
     39 H14          6.8030     2.4370     1.1410 ha         1 5TL       0.113500
     40 H15          2.4840     2.7810    -1.3180 ha         1 5TL       0.110000
     41 H16          4.0670     4.6820    -1.3280 ha         1 5TL       0.113500
     42 H17          6.2330     4.5200    -0.1060 ha         1 5TL       0.114000
     43 NAY          0.0600    -2.8690     0.0470 nv         1 5TL      -1.104000
@<TRIPOS>BOND
     1     1     2 2   
     2     2     3 2   
     3     2     4 1   
     4     2     5 1   
     5     4    26 1   
     6     4    27 1   
     7     5     6 ar  
     8     5     8 ar  
     9     6     7 ar  
    10     6    28 1   
    11     7    16 ar  
    12     7    29 1   
    13     8     9 ar  
    14     8    30 1   
    15     9    16 ar  
    16     9    31 1   
    17    10    11 ar  
    18    10    17 ar  
    19    10    43 1   
    20    11    12 1   
    21    11    15 ar  
    22    12    13 2   
    23    12    14 1   
    24    14    34 1   
    25    14    35 1   
    26    15    19 ar  
    27    15    36 1   
    28    16    17 1   
    29    17    18 ar  
    30    18    19 ar  
    31    18    37 1   
    32    19    20 1   
    33    20    21 ar  
    34    20    23 ar  
    35    21    22 ar  
    36    21    38 1   
    37    22    25 ar  
    38    22    39 1   
    39    23    24 ar  
    40    23    40 1   
    41    24    25 ar  
    42    24    41 1   
    43    25    42 1   
    44    32    43 1   
    45    33    43 1   
@<TRIPOS>SUBSTRUCTURE
     1 5TL         1 TEMP              0 ****  ****    0 ROOT
