@<TRIPOS>MOLECULE
5TM
   29    29     1     0     0
SMALL
bcc


@<TRIPOS>ATOM
      1 C1          -0.5760    -1.6460     0.5650 c6         1 5TM       0.324900
      2 C2           0.1580    -0.4830    -0.0980 c6         1 5TM       0.186100
      3 C3          -0.6720     0.7890    -0.0080 c6         1 5TM       0.116100
      4 C4          -2.0590     0.5530    -0.5890 c6         1 5TM       0.103100
      5 C5          -2.6970    -0.6790     0.0690 c6         1 5TM       0.122100
      6 C6          -3.9990    -1.0570    -0.6040 c3         1 5TM       0.141400
      7 O2           1.4130    -0.3140     0.5380 os         1 5TM      -0.564500
      8 O3          -0.0110     1.7810    -0.7840 os         1 5TM      -0.385600
      9 O4          -2.8190     1.7150    -0.3600 oh         1 5TM      -0.586800
     10 O5          -1.8310    -1.7980    -0.0390 os         1 5TM      -0.437600
     11 O6          -4.5800    -2.1300     0.0970 oh         1 5TM      -0.583800
     12 O1S          3.0790     1.1690    -0.5740 o          1 5TM      -0.699200
     13 O2S          3.7500    -0.8460     0.6450 o          1 5TM      -0.699200
     14 O3S          2.6000    -1.0350    -1.5340 o          1 5TM      -0.699200
     15 O3X          1.5990     2.8160     0.9510 oh         1 5TM      -0.593800
     16 S            2.8200    -0.2610    -0.3130 s6         1 5TM       1.504300
     17 S1           0.3910     3.2080    -0.0800 ss         1 5TM       0.257600
     18 O1          -0.6550    -1.3980     1.9270 oh         1 5TM      -0.584800
     19 H1          -0.0450    -2.5830     0.3560 h2         1 5TM       0.077700
     20 H2           0.2850    -0.7450    -1.1530 h1         1 5TM       0.078700
     21 H3          -0.7710     1.1130     1.0350 h1         1 5TM       0.092700
     22 H4          -1.9500     0.3550    -1.6650 h1         1 5TM       0.048700
     23 H5          -2.8990    -0.4460     1.1230 h1         1 5TM       0.068700
     24 H6          -4.6540    -0.1780    -0.6070 h1         1 5TM       0.018700
     25 H7          -3.8000    -1.3160    -1.6540 h1         1 5TM       0.018700
     26 H8          -3.4040     1.8590    -1.1090 ho         1 5TM       0.393000
     27 H9          -5.4260    -2.3300    -0.3140 ho         1 5TM       0.391000
     28 H10          2.3280     2.3930     0.4410 ho         1 5TM       0.491000
     29 H11         -0.9400    -2.2000     2.3790 ho         1 5TM       0.399000
@<TRIPOS>BOND
     1     1     2 1   
     2     1    10 1   
     3     1    18 1   
     4     1    19 1   
     5     2     3 1   
     6     2     7 1   
     7     2    20 1   
     8     3     4 1   
     9     3     8 1   
    10     3    21 1   
    11     4     5 1   
    12     4     9 1   
    13     4    22 1   
    14     5     6 1   
    15     5    10 1   
    16     5    23 1   
    17     6    11 1   
    18     6    24 1   
    19     6    25 1   
    20     7    16 1   
    21     8    17 1   
    22     9    26 1   
    23    11    27 1   
    24    12    16 1   
    25    13    16 1   
    26    14    16 1   
    27    15    17 1   
    28    15    28 1   
    29    18    29 1   
@<TRIPOS>SUBSTRUCTURE
     1 5TM         1 TEMP              0 ****  ****    0 ROOT
