@<TRIPOS>MOLECULE
5TM
   29    29     1     0     0
SMALL
No Charge or Current Charge


@<TRIPOS>ATOM
      1 C1          -0.5570    -1.7330     0.6120 c6         1 5TM       0.371300
      2 C2           0.2440    -0.6030    -0.1370 c6         1 5TM       0.209300
      3 C3          -0.6100     0.7090    -0.1130 c6         1 5TM       0.139300
      4 C4          -2.0430     0.4490    -0.6770 c6         1 5TM       0.126300
      5 C5          -2.7230    -0.7050     0.1160 c6         1 5TM       0.145300
      6 C6          -4.1310    -1.0780    -0.4590 c3         1 5TM       0.164600
      7 O2           1.5370    -0.4090     0.5120 os         1 5TM      -0.587700
      8 O3           0.0320     1.7570    -0.8830 os         1 5TM      -0.408800
      9 O4          -2.8360     1.6530    -0.6590 oh         1 5TM      -0.709000
     10 O5          -1.8800    -1.8900     0.0640 os         1 5TM      -0.484000
     11 O6          -4.7500    -2.1890     0.2200 oh         1 5TM      -0.706000
     12 O1S          3.0450     1.3570    -0.2620 o          1 5TM      -0.699200
     13 O2S          3.9380    -0.8590     0.3420 o          1 5TM      -0.699200
     14 O3S          2.6110    -0.5920    -1.7210 o          1 5TM      -0.699200
     15 O3X          1.4310     2.9810     0.9930 oh         1 5TM      -0.632800
     16 S            2.8960    -0.1030    -0.3660 s6         1 5TM       1.504300
     17 S1           0.1680     3.2600    -0.0830 ss         1 5TM       0.257600
     18 O1          -0.7110    -1.4900     2.0130 oh         1 5TM      -0.647000
     19 H1          -0.0070    -2.6770     0.4730 h2         1 5TM       0.077700
     20 H2           0.3610    -0.9390    -1.1750 h1         1 5TM       0.078700
     21 H3          -0.6970     1.0290     0.9360 h1         1 5TM       0.092700
     22 H4          -1.9320     0.1090    -1.7180 h1         1 5TM       0.048700
     23 H5          -2.8600    -0.3960     1.1630 h1         1 5TM       0.068700
     24 H6          -4.7800    -0.1960    -0.3870 h1         1 5TM       0.018700
     25 H7          -4.0150    -1.3110    -1.5260 h1         1 5TM       0.018700
     26 H8          -2.3290     2.3220    -1.1750 ho         1 5TM       0.492000
     27 H9          -5.5880    -2.3860    -0.2600 ho         1 5TM       0.490000
     28 H10          2.1020     2.4530     0.4670 ho         1 5TM       0.530000
     29 H11         -1.2850    -2.2170     2.3320 ho         1 5TM       0.438000
@<TRIPOS>BOND
     1     1     2 1   
     2     1    10 1   
     3     1    18 1   
     4     1    19 1   
     5     2     3 1   
     6     2     7 1   
     7     2    20 1   
     8     3     4 1   
     9     3     8 1   
    10     3    21 1   
    11     4     5 1   
    12     4     9 1   
    13     4    22 1   
    14     5     6 1   
    15     5    10 1   
    16     5    23 1   
    17     6    11 1   
    18     6    24 1   
    19     6    25 1   
    20     7    16 1   
    21     8    17 1   
    22     9    26 1   
    23    11    27 1   
    24    12    16 1   
    25    13    16 1   
    26    14    16 1   
    27    15    17 1   
    28    15    28 1   
    29    18    29 1   
@<TRIPOS>SUBSTRUCTURE
     1 5TM         1 TEMP              0 ****  ****    0 ROOT
