@<TRIPOS>MOLECULE
5TN
   61    63     1     0     0
SMALL
No Charge or Current Charge


@<TRIPOS>ATOM
      1 CAA         -2.4940     2.6110    -2.2390 c3         1 5TN      -0.088100
      2 CAP         -2.2030     1.3820    -1.3550 c3         1 5TN      -0.082400
      3 CAQ         -0.7670     0.8490    -1.5190 c3         1 5TN       0.166600
      4 OAT         -0.6250    -0.2860    -0.6510 os         1 5TN      -0.327100
      5 CAX          0.5490    -1.0130    -0.5670 ca         1 5TN       0.165100
      6 CAN          1.7070    -0.6620    -1.2880 ca         1 5TN      -0.210000
      7 CBA          2.9080    -1.3940    -1.1490 ca         1 5TN      -0.029300
      8 CBC          4.1560    -0.9450    -1.9610 c6         1 5TN       0.001300
      9 CAB          4.3800     0.6000    -1.8670 c3         1 5TN      -0.079100
     10 CAC          3.9130    -1.2800    -3.4670 c3         1 5TN      -0.079100
     11 CAR          5.4540    -1.6330    -1.4520 c6         1 5TN      -0.064400
     12 CAS          5.2510    -3.1390    -1.2190 c6         1 5TN      -0.065400
     13 CBD          4.1930    -3.4160    -0.1150 c6         1 5TN       0.010300
     14 CAD          4.7890    -3.1350     1.3000 c3         1 5TN      -0.081600
     15 CAE          3.8450    -4.9390    -0.1710 c3         1 5TN      -0.081600
     16 CBB          2.9250    -2.5360    -0.2960 ca         1 5TN      -0.102300
     17 CAO          1.7590    -2.8570     0.4370 ca         1 5TN      -0.066000
     18 CAZ          0.5630    -2.1200     0.3120 cp         1 5TN      -0.036000
     19 CAY         -0.6360    -2.5130     1.1130 cp         1 5TN      -0.067000
     20 CAM         -0.6050    -2.3810     2.5230 ca         1 5TN      -0.073000
     21 CAW         -1.8070    -3.0380     0.5070 ca         1 5TN       0.126100
     22 OAH         -1.8820    -3.2290    -0.8420 oh         1 5TN      -0.534100
     23 CAL         -2.9110    -3.3980     1.2950 ca         1 5TN      -0.215000
     24 CAK         -2.8650    -3.2480     2.6910 ca         1 5TN      -0.081000
     25 CAV         -1.7120    -2.7420     3.3190 ca         1 5TN      -0.033800
     26 CAJ         -1.6910    -2.6010     4.8050 ce         1 5TN      -0.234200
     27 CAI         -0.6870    -2.1480     5.6210 cf         1 5TN      -0.217200
     28 CAU         -0.7620    -2.0440     7.1100 c          1 5TN       0.695200
     29 OAG          0.2220    -1.6190     7.6940 o          1 5TN      -0.725500
     30 OAF         -1.7900    -2.3810     7.6780 o          1 5TN      -0.725500
     31 HAI          0.2570    -1.8300     5.1880 ha         1 5TN       0.143000
     32 HAJ         -2.6210    -2.9100     5.2860 ha         1 5TN       0.188000
     33 HAM          0.2940    -1.9860     2.9840 ha         1 5TN       0.122000
     34 HAH         -2.7680    -3.5930    -1.0500 ho         1 5TN       0.447000
     35 HAL         -3.8090    -3.8010     0.8320 ha         1 5TN       0.095000
     36 HAK         -3.7300    -3.5330     3.2870 ha         1 5TN       0.111000
     37 HAO          1.7600    -3.6960     1.1250 ha         1 5TN       0.121000
     38 HAN          1.6820     0.1840    -1.9640 ha         1 5TN       0.106000
     39 HAQ1        -0.6010     0.5600    -2.5650 h1         1 5TN       0.025700
     40 HAQ2        -0.0510     1.6350    -1.2500 h1         1 5TN       0.025700
     41 HAP1        -2.9140     0.5850    -1.6030 hc         1 5TN       0.058200
     42 HAP2        -2.3700     1.6490    -0.3040 hc         1 5TN       0.058200
     43 HAA1        -2.3650     2.3640    -3.3000 hc         1 5TN       0.030033
     44 HAA2        -3.5240     2.9540    -2.0900 hc         1 5TN       0.030033
     45 HAA3        -1.8170     3.4360    -1.9900 hc         1 5TN       0.030033
     46 HAB1         3.5930     1.1760    -2.3660 hc         1 5TN       0.031200
     47 HAB2         4.4200     0.9300    -0.8220 hc         1 5TN       0.031200
     48 HAB3         5.3270     0.8930    -2.3390 hc         1 5TN       0.031200
     49 HAC1         4.7860    -1.0280    -4.0810 hc         1 5TN       0.031200
     50 HAC2         3.6990    -2.3450    -3.6160 hc         1 5TN       0.031200
     51 HAC3         3.0590    -0.7240    -3.8700 hc         1 5TN       0.031200
     52 HAR1         5.7920    -1.1600    -0.5210 hc         1 5TN       0.038200
     53 HAR2         6.2700    -1.4810    -2.1720 hc         1 5TN       0.038200
     54 HAS1         4.9500    -3.6180    -2.1600 hc         1 5TN       0.035700
     55 HAS2         6.2110    -3.6000    -0.9470 hc         1 5TN       0.035700
     56 HAD1         5.0140    -2.0720     1.4430 hc         1 5TN       0.034367
     57 HAD2         4.0910    -3.4220     2.0950 hc         1 5TN       0.034367
     58 HAD3         5.7180    -3.6960     1.4640 hc         1 5TN       0.034367
     59 HAE1         4.7540    -5.5530    -0.1590 hc         1 5TN       0.034367
     60 HAE2         3.2350    -5.2680     0.6770 hc         1 5TN       0.034367
     61 HAE3         3.2970    -5.1850    -1.0880 hc         1 5TN       0.034367
@<TRIPOS>BOND
     1     1     2 1   
     2     1    43 1   
     3     1    44 1   
     4     1    45 1   
     5     2     3 1   
     6     2    41 1   
     7     2    42 1   
     8     3     4 1   
     9     3    39 1   
    10     3    40 1   
    11     4     5 1   
    12     5     6 ar  
    13     5    18 ar  
    14     6     7 ar  
    15     6    38 1   
    16     7     8 1   
    17     7    16 ar  
    18     8     9 1   
    19     8    10 1   
    20     8    11 1   
    21     9    46 1   
    22     9    47 1   
    23     9    48 1   
    24    10    49 1   
    25    10    50 1   
    26    10    51 1   
    27    11    12 1   
    28    11    52 1   
    29    11    53 1   
    30    12    13 1   
    31    12    54 1   
    32    12    55 1   
    33    13    14 1   
    34    13    15 1   
    35    13    16 1   
    36    14    56 1   
    37    14    57 1   
    38    14    58 1   
    39    15    59 1   
    40    15    60 1   
    41    15    61 1   
    42    16    17 ar  
    43    17    18 ar  
    44    17    37 1   
    45    18    19 1   
    46    19    20 ar  
    47    19    21 ar  
    48    20    25 ar  
    49    20    33 1   
    50    21    22 1   
    51    21    23 ar  
    52    22    34 1   
    53    23    24 ar  
    54    23    35 1   
    55    24    25 ar  
    56    24    36 1   
    57    25    26 1   
    58    26    27 2   
    59    26    32 1   
    60    27    28 1   
    61    27    31 1   
    62    28    29 1   
    63    28    30 1   
@<TRIPOS>SUBSTRUCTURE
     1 5TN         1 TEMP              0 ****  ****    0 ROOT
