@<TRIPOS>MOLECULE
5TN
   61    63     1     0     0
SMALL
bcc


@<TRIPOS>ATOM
      1 CAA         -2.3290     2.5380    -2.3280 c3         1 5TN      -0.088100
      2 CAP         -2.1320     1.3620    -1.3810 c3         1 5TN      -0.082400
      3 CAQ         -0.7340     0.7920    -1.5020 c3         1 5TN       0.143400
      4 OAT         -0.6170    -0.2940    -0.6020 os         1 5TN      -0.303900
      5 CAX          0.5350    -0.9850    -0.5460 ca         1 5TN       0.165100
      6 CAN          1.6780    -0.6630    -1.2610 ca         1 5TN      -0.228000
      7 CBA          2.8680    -1.3890    -1.1320 ca         1 5TN      -0.029300
      8 CBC          4.0690    -0.9530    -1.9630 c6         1 5TN       0.001300
      9 CAB          4.2690     0.5660    -1.9060 c3         1 5TN      -0.079100
     10 CAC          3.8340    -1.3670    -3.4240 c3         1 5TN      -0.079100
     11 CAR          5.3480    -1.6050    -1.4280 c6         1 5TN      -0.064400
     12 CAS          5.1730    -3.0840    -1.1530 c6         1 5TN      -0.065400
     13 CBD          4.1350    -3.3590    -0.0600 c6         1 5TN       0.010300
     14 CAD          4.7220    -3.0450     1.3230 c3         1 5TN      -0.081600
     15 CAE          3.7850    -4.8510    -0.1200 c3         1 5TN      -0.081600
     16 CBB          2.9000    -2.4920    -0.2760 ca         1 5TN      -0.102300
     17 CAO          1.7380    -2.7950     0.4410 ca         1 5TN      -0.084000
     18 CAZ          0.5590    -2.0810     0.3260 cp         1 5TN      -0.036000
     19 CAY         -0.6230    -2.4540     1.1320 cp         1 5TN      -0.067000
     20 CAM         -0.5680    -2.4010     2.5150 ca         1 5TN      -0.091000
     21 CAW         -1.7980    -2.9180     0.5210 ca         1 5TN       0.126100
     22 OAH         -1.8160    -3.0050    -0.8190 oh         1 5TN      -0.495100
     23 CAL         -2.8780    -3.3010     1.3080 ca         1 5TN      -0.233000
     24 CAK         -2.7950    -3.2350     2.6900 ca         1 5TN      -0.099000
     25 CAV         -1.6400    -2.7840     3.3280 ca         1 5TN      -0.033800
     26 CAJ         -1.6030    -2.7290     4.7880 ce         1 5TN      -0.184200
     27 CAI         -0.6270    -2.2390     5.5580 cf         1 5TN      -0.167200
     28 CAU         -0.6900    -2.2230     7.0650 c          1 5TN       0.905800
     29 OAG          0.2870    -1.6940     7.6370 o          1 5TN      -0.830800
     30 OAF         -1.6910    -2.7260     7.6160 o          1 5TN      -0.830800
     31 HAI          0.2670    -1.8140     5.1090 ha         1 5TN       0.093000
     32 HAJ         -2.4790    -3.1320     5.2870 ha         1 5TN       0.138000
     33 HAM          0.3490    -2.0410     2.9680 ha         1 5TN       0.140000
     34 HAH         -2.6770    -3.3160    -1.1210 ho         1 5TN       0.408000
     35 HAL         -3.7850    -3.6670     0.8420 ha         1 5TN       0.113000
     36 HAK         -3.6470    -3.5450     3.2820 ha         1 5TN       0.129000
     37 HAO          1.7440    -3.6380     1.1210 ha         1 5TN       0.139000
     38 HAN          1.6600     0.1780    -1.9400 ha         1 5TN       0.124000
     39 HAQ1        -0.5500     0.4600    -2.5310 h1         1 5TN       0.025700
     40 HAQ2         0.0090     1.5660    -1.2710 h1         1 5TN       0.025700
     41 HAP1        -2.8620     0.5790    -1.6010 hc         1 5TN       0.058200
     42 HAP2        -2.3070     1.6810    -0.3510 hc         1 5TN       0.058200
     43 HAA1        -2.1830     2.2400    -3.3680 hc         1 5TN       0.030033
     44 HAA2        -3.3340     2.9470    -2.2400 hc         1 5TN       0.030033
     45 HAA3        -1.6250     3.3440    -2.1120 hc         1 5TN       0.030033
     46 HAB1         3.4540     1.1250    -2.3680 hc         1 5TN       0.031200
     47 HAB2         4.3700     0.9120    -0.8760 hc         1 5TN       0.031200
     48 HAB3         5.1830     0.8360    -2.4390 hc         1 5TN       0.031200
     49 HAC1         4.6880    -1.0840    -4.0430 hc         1 5TN       0.031200
     50 HAC2         3.6870    -2.4430    -3.5250 hc         1 5TN       0.031200
     51 HAC3         2.9490    -0.8770    -3.8330 hc         1 5TN       0.031200
     52 HAR1         5.6580    -1.0910    -0.5130 hc         1 5TN       0.038200
     53 HAR2         6.1530    -1.4460    -2.1510 hc         1 5TN       0.038200
     54 HAS1         4.8720    -3.5950    -2.0730 hc         1 5TN       0.035700
     55 HAS2         6.1270    -3.5330    -0.8590 hc         1 5TN       0.035700
     56 HAD1         5.0250    -2.0010     1.4120 hc         1 5TN       0.034367
     57 HAD2         3.9910    -3.2360     2.1110 hc         1 5TN       0.034367
     58 HAD3         5.5960    -3.6680     1.5260 hc         1 5TN       0.034367
     59 HAE1         4.6970    -5.4470    -0.0400 hc         1 5TN       0.034367
     60 HAE2         3.1240    -5.1670     0.6870 hc         1 5TN       0.034367
     61 HAE3         3.3050    -5.1050    -1.0670 hc         1 5TN       0.034367
@<TRIPOS>BOND
     1     1     2 1   
     2     1    43 1   
     3     1    44 1   
     4     1    45 1   
     5     2     3 1   
     6     2    41 1   
     7     2    42 1   
     8     3     4 1   
     9     3    39 1   
    10     3    40 1   
    11     4     5 1   
    12     5     6 ar  
    13     5    18 ar  
    14     6     7 ar  
    15     6    38 1   
    16     7     8 1   
    17     7    16 ar  
    18     8     9 1   
    19     8    10 1   
    20     8    11 1   
    21     9    46 1   
    22     9    47 1   
    23     9    48 1   
    24    10    49 1   
    25    10    50 1   
    26    10    51 1   
    27    11    12 1   
    28    11    52 1   
    29    11    53 1   
    30    12    13 1   
    31    12    54 1   
    32    12    55 1   
    33    13    14 1   
    34    13    15 1   
    35    13    16 1   
    36    14    56 1   
    37    14    57 1   
    38    14    58 1   
    39    15    59 1   
    40    15    60 1   
    41    15    61 1   
    42    16    17 ar  
    43    17    18 ar  
    44    17    37 1   
    45    18    19 1   
    46    19    20 ar  
    47    19    21 ar  
    48    20    25 ar  
    49    20    33 1   
    50    21    22 1   
    51    21    23 ar  
    52    22    34 1   
    53    23    24 ar  
    54    23    35 1   
    55    24    25 ar  
    56    24    36 1   
    57    25    26 1   
    58    26    27 2   
    59    26    32 1   
    60    27    28 1   
    61    27    31 1   
    62    28    29 1   
    63    28    30 1   
@<TRIPOS>SUBSTRUCTURE
     1 5TN         1 TEMP              0 ****  ****    0 ROOT
