@<TRIPOS>MOLECULE
5TO
   35    36     1     0     0
SMALL
bcc


@<TRIPOS>ATOM
      1 CAG          3.8530    -0.8660    -0.2950 c5         1 5TO      -0.077400
      2 CAB          4.9710     0.1200     0.1140 c5         1 5TO      -0.078900
      3 CAC          4.2610     1.4540     0.4100 c5         1 5TO      -0.078900
      4 CAH          2.8020     1.0730     0.6440 c5         1 5TO      -0.077400
      5 CAM          2.5620    -0.0380    -0.3800 c5         1 5TO      -0.070700
      6 CAI          1.3040    -0.8670    -0.1690 c3         1 5TO      -0.057400
      7 CAF          0.0290    -0.0460    -0.2880 c3         1 5TO      -0.152400
      8 CAL         -1.2380    -0.8680    -0.1640 c          1 5TO       0.671100
      9 OAA         -1.2240    -2.0940    -0.1300 o          1 5TO      -0.610100
     10 NAN         -2.3870    -0.1760    -0.0960 n          1 5TO      -0.489800
     11 CAJ         -2.5150     1.2770    -0.1420 c5         1 5TO       0.103000
     12 CAD         -4.0130     1.4910    -0.3310 c5         1 5TO      -0.094900
     13 CAE         -4.6260     0.2980     0.3960 c5         1 5TO      -0.094900
     14 CAK         -3.6760    -0.8430     0.0530 c5         1 5TO       0.103000
     15 H1           4.0690    -1.3820    -1.2320 hc         1 5TO       0.041950
     16 H2           3.7330    -1.6380     0.4700 hc         1 5TO       0.041950
     17 H3           5.4970    -0.2440     0.9980 hc         1 5TO       0.040200
     18 H4           5.7210     0.2330    -0.6690 hc         1 5TO       0.040200
     19 H5           4.7050     1.9910     1.2500 hc         1 5TO       0.040200
     20 H6           4.3240     2.1150    -0.4580 hc         1 5TO       0.040200
     21 H7           2.6660     0.6740     1.6570 hc         1 5TO       0.041950
     22 H8           2.1210     1.9190     0.5360 hc         1 5TO       0.041950
     23 H9           2.5130     0.4290    -1.3730 hc         1 5TO       0.043700
     24 H10          1.2840    -1.6820    -0.8980 hc         1 5TO       0.056200
     25 H11          1.3480    -1.3410     0.8170 hc         1 5TO       0.056200
     26 H12          0.0170     0.7470     0.4660 hc         1 5TO       0.054700
     27 H13          0.0100     0.4760    -1.2520 hc         1 5TO       0.054700
     28 H14         -2.1690     1.7290     0.7930 h1         1 5TO       0.049450
     29 H15         -1.9280     1.7080    -0.9540 h1         1 5TO       0.049450
     30 H16         -4.3410     2.4530     0.0600 hc         1 5TO       0.053700
     31 H17         -4.2640     1.4590    -1.3930 hc         1 5TO       0.053700
     32 H18         -4.6290     0.4770     1.4730 hc         1 5TO       0.053700
     33 H19         -5.6500     0.0880     0.0910 hc         1 5TO       0.053700
     34 H20         -3.9680    -1.3320    -0.8820 h1         1 5TO       0.049450
     35 H21         -3.6350    -1.6090     0.8270 h1         1 5TO       0.049450
@<TRIPOS>BOND
     1     1     2 1   
     2     1     5 1   
     3     1    15 1   
     4     1    16 1   
     5     2     3 1   
     6     2    17 1   
     7     2    18 1   
     8     3     4 1   
     9     3    19 1   
    10     3    20 1   
    11     4     5 1   
    12     4    21 1   
    13     4    22 1   
    14     5     6 1   
    15     5    23 1   
    16     6     7 1   
    17     6    24 1   
    18     6    25 1   
    19     7     8 1   
    20     7    26 1   
    21     7    27 1   
    22     8     9 2   
    23     8    10 1   
    24    10    11 1   
    25    10    14 1   
    26    11    12 1   
    27    11    28 1   
    28    11    29 1   
    29    12    13 1   
    30    12    30 1   
    31    12    31 1   
    32    13    14 1   
    33    13    32 1   
    34    13    33 1   
    35    14    34 1   
    36    14    35 1   
@<TRIPOS>SUBSTRUCTURE
     1 5TO         1 TEMP              0 ****  ****    0 ROOT
