@<TRIPOS>MOLECULE
5TO
   35    36     1     0     0
SMALL
No Charge or Current Charge


@<TRIPOS>ATOM
      1 CAG          3.9500    -0.8900    -0.1850 c5         1 5TO      -0.077400
      2 CAB          5.0290     0.2270    -0.2050 c5         1 5TO      -0.078900
      3 CAC          4.3600     1.4340     0.5300 c5         1 5TO      -0.078900
      4 CAH          2.9080     0.9640     0.8370 c5         1 5TO      -0.077400
      5 CAM          2.6440    -0.0650    -0.2930 c5         1 5TO      -0.070700
      6 CAI          1.3510    -0.9030    -0.1340 c3         1 5TO      -0.057400
      7 CAF          0.0430    -0.0770    -0.2220 c3         1 5TO      -0.152400
      8 CAL         -1.2680    -0.8820    -0.1150 c          1 5TO       0.604100
      9 OAA         -1.2660    -2.1050    -0.0430 o          1 5TO      -0.610100
     10 NAN         -2.4860    -0.1710    -0.1010 n          1 5TO      -0.422800
     11 CAJ         -2.5930     1.3010    -0.2100 c5         1 5TO       0.103000
     12 CAD         -4.1070     1.4860    -0.4870 c5         1 5TO      -0.094900
     13 CAE         -4.7250     0.3520     0.3660 c5         1 5TO      -0.094900
     14 CAK         -3.7980    -0.8410     0.0230 c5         1 5TO       0.103000
     15 H1           4.0710    -1.5960    -1.0140 hc         1 5TO       0.041950
     16 H2           3.9900    -1.4710     0.7460 hc         1 5TO       0.041950
     17 H3           5.9560    -0.0940     0.2840 hc         1 5TO       0.040200
     18 H4           5.2900     0.4990    -1.2340 hc         1 5TO       0.040200
     19 H5           4.8950     1.7050     1.4480 hc         1 5TO       0.040200
     20 H6           4.3600     2.3230    -0.1110 hc         1 5TO       0.040200
     21 H7           2.8420     0.4990     1.8290 hc         1 5TO       0.041950
     22 H8           2.1980     1.7980     0.8240 hc         1 5TO       0.041950
     23 H9           2.5830     0.4340    -1.2690 hc         1 5TO       0.043700
     24 H10          1.3290    -1.6760    -0.9130 hc         1 5TO       0.056200
     25 H11          1.3700    -1.4340     0.8260 hc         1 5TO       0.056200
     26 H12          0.0120     0.7170     0.5320 hc         1 5TO       0.054700
     27 H13          0.0030     0.5060    -1.1490 hc         1 5TO       0.054700
     28 H14         -2.2940     1.7810     0.7320 h1         1 5TO       0.049450
     29 H15         -1.9820     1.7130    -1.0240 h1         1 5TO       0.049450
     30 H16         -4.4670     2.4810    -0.2020 hc         1 5TO       0.053700
     31 H17         -4.3330     1.3470    -1.5520 hc         1 5TO       0.053700
     32 H18         -4.6800     0.5920     1.4350 hc         1 5TO       0.053700
     33 H19         -5.7740     0.1530     0.1170 hc         1 5TO       0.053700
     34 H20         -4.0800    -1.3130    -0.9280 h1         1 5TO       0.049450
     35 H21         -3.8060    -1.6070     0.8100 h1         1 5TO       0.049450
@<TRIPOS>BOND
     1     1     2 1   
     2     1     5 1   
     3     1    15 1   
     4     1    16 1   
     5     2     3 1   
     6     2    17 1   
     7     2    18 1   
     8     3     4 1   
     9     3    19 1   
    10     3    20 1   
    11     4     5 1   
    12     4    21 1   
    13     4    22 1   
    14     5     6 1   
    15     5    23 1   
    16     6     7 1   
    17     6    24 1   
    18     6    25 1   
    19     7     8 1   
    20     7    26 1   
    21     7    27 1   
    22     8     9 2   
    23     8    10 1   
    24    10    11 1   
    25    10    14 1   
    26    11    12 1   
    27    11    28 1   
    28    11    29 1   
    29    12    13 1   
    30    12    30 1   
    31    12    31 1   
    32    13    14 1   
    33    13    32 1   
    34    13    33 1   
    35    14    34 1   
    36    14    35 1   
@<TRIPOS>SUBSTRUCTURE
     1 5TO         1 TEMP              0 ****  ****    0 ROOT
