@<TRIPOS>MOLECULE
5TP
   31    32     1     0     0
SMALL
No Charge or Current Charge


@<TRIPOS>ATOM
      1 N11          2.8010     0.8710    -0.6310 n7         1 5TP      -0.851400
      2 C21          2.5970    -0.2030     0.3720 c6         1 5TP       0.161500
      3 C31          3.8030    -1.1810     0.3630 c6         1 5TP      -0.110400
      4 C41          5.1350    -0.4260     0.5970 c6         1 5TP      -0.073400
      5 C51          5.2830     0.7320    -0.4180 c6         1 5TP      -0.114400
      6 C61          4.0390     1.6520    -0.3960 c6         1 5TP       0.151800
      7 C1           1.2570    -0.9410     0.0900 c3         1 5TP      -0.063400
      8 C2          -0.0100    -0.0480     0.1960 c3         1 5TP      -0.158400
      9 S1          -4.1610    -0.6570    -0.1690 ss         1 5TP       0.077600
     10 O2          -1.3980    -1.9500    -0.3190 o          1 5TP      -0.522100
     11 C52         -4.8850     0.8910     0.1510 cc         1 5TP      -0.283000
     12 C22         -2.5990     0.0850     0.0880 cc         1 5TP       0.316900
     13 C2'1        -1.3620    -0.7530    -0.0400 c          1 5TP       0.503600
     14 C42         -3.9360     1.8460     0.4240 cd         1 5TP       0.268900
     15 N3          -2.6270     1.3890     0.3890 nd         1 5TP      -0.609000
     16 H21          2.5250     0.2510     1.3730 h1         1 5TP       0.058700
     17 H31          3.6720    -1.9450     1.1410 hc         1 5TP       0.044200
     18 H32          3.8460    -1.7150    -0.5960 hc         1 5TP       0.044200
     19 H41          5.1590    -0.0270     1.6210 hc         1 5TP       0.041200
     20 H42          5.9830    -1.1190     0.5090 hc         1 5TP       0.041200
     21 H51          6.1840     1.3180    -0.1900 hc         1 5TP       0.042700
     22 H52          5.4240     0.3240    -1.4290 hc         1 5TP       0.042700
     23 H61          4.1400     2.4280    -1.1690 h1         1 5TP       0.051700
     24 H62          3.9750     2.1610     0.5780 h1         1 5TP       0.051700
     25 H1'1         1.2880    -1.3960    -0.9080 hc         1 5TP       0.049700
     26 H1'2         1.1510    -1.7700     0.8010 hc         1 5TP       0.049700
     27 H2'1        -0.0650     0.4650     1.1630 hc         1 5TP       0.088200
     28 H2'2         0.0340     0.8110    -0.4840 hc         1 5TP       0.088200
     29 H43         -4.1350     2.8850     0.6550 h4         1 5TP       0.045100
     30 H2           2.8690     0.4330    -1.5560 hn         1 5TP       0.402000
     31 H5          -5.9610     1.0010     0.1190 h4         1 5TP       0.163000
@<TRIPOS>BOND
     1     1     2 1   
     2     1     6 1   
     3     1    30 1   
     4     2     3 1   
     5     2     7 1   
     6     2    16 1   
     7     3     4 1   
     8     3    17 1   
     9     3    18 1   
    10     4     5 1   
    11     4    19 1   
    12     4    20 1   
    13     5     6 1   
    14     5    21 1   
    15     5    22 1   
    16     6    23 1   
    17     6    24 1   
    18     7     8 1   
    19     7    25 1   
    20     7    26 1   
    21     8    13 1   
    22     8    27 1   
    23     8    28 1   
    24     9    11 1   
    25     9    12 1   
    26    10    13 2   
    27    11    14 2   
    28    11    31 1   
    29    12    13 1   
    30    12    15 2   
    31    14    15 1   
    32    14    29 1   
@<TRIPOS>SUBSTRUCTURE
     1 5TP         1 TEMP              0 ****  ****    0 ROOT
