@<TRIPOS>MOLECULE
5TP
   31    32     1     0     0
SMALL
abcg2


@<TRIPOS>ATOM
      1 N11          2.7430     0.8930    -0.6060 n7         1 5TP      -0.851400
      2 C21          2.5620    -0.1920     0.3520 c6         1 5TP       0.161500
      3 C31          3.7430    -1.1650     0.3740 c6         1 5TP      -0.110400
      4 C41          5.0570    -0.4250     0.6050 c6         1 5TP      -0.073400
      5 C51          5.2250     0.7040    -0.4060 c6         1 5TP      -0.114400
      6 C61          3.9940     1.6080    -0.4070 c6         1 5TP       0.151800
      7 C1           1.2510    -0.9220     0.0860 c3         1 5TP      -0.063400
      8 C2           0.0400    -0.0090     0.1810 c3         1 5TP      -0.158400
      9 S1          -4.0270    -0.6460    -0.1830 ss         1 5TP       0.077600
     10 O2          -1.3680    -1.8750    -0.3610 o          1 5TP      -0.522100
     11 C52         -4.7780     0.8440     0.1550 cc         1 5TP      -0.283000
     12 C22         -2.4960     0.1000     0.0820 cc         1 5TP       0.316900
     13 C2'1        -1.2640    -0.7070    -0.0590 c          1 5TP       0.503600
     14 C42         -3.8370     1.7900     0.4420 cd         1 5TP       0.268900
     15 N3          -2.5520     1.3570     0.3980 nd         1 5TP      -0.609000
     16 H21          2.5020     0.2750     1.3450 h1         1 5TP       0.058700
     17 H31          3.5890    -1.9170     1.1530 hc         1 5TP       0.044200
     18 H32          3.7810    -1.7050    -0.5800 hc         1 5TP       0.044200
     19 H41          5.0620    -0.0090     1.6180 hc         1 5TP       0.041200
     20 H42          5.9000    -1.1180     0.5510 hc         1 5TP       0.041200
     21 H51          6.1220     1.2910    -0.1890 hc         1 5TP       0.042700
     22 H52          5.3590     0.2830    -1.4080 hc         1 5TP       0.042700
     23 H61          4.0830     2.3740    -1.1810 h1         1 5TP       0.051700
     24 H62          3.9340     2.1400     0.5500 h1         1 5TP       0.051700
     25 H1'1         1.2950    -1.3910    -0.9030 hc         1 5TP       0.049700
     26 H1'2         1.1610    -1.7380     0.8070 hc         1 5TP       0.049700
     27 H2'1        -0.0060     0.4740     1.1630 hc         1 5TP       0.088200
     28 H2'2         0.1180     0.8170    -0.5310 hc         1 5TP       0.088200
     29 H43         -4.0530     2.8190     0.6910 h4         1 5TP       0.045100
     30 H2           2.7360     0.5020    -1.5440 hn         1 5TP       0.402000
     31 H5          -5.8500     0.9610     0.1300 h4         1 5TP       0.163000
@<TRIPOS>BOND
     1     1     2 1   
     2     1     6 1   
     3     1    30 1   
     4     2     3 1   
     5     2     7 1   
     6     2    16 1   
     7     3     4 1   
     8     3    17 1   
     9     3    18 1   
    10     4     5 1   
    11     4    19 1   
    12     4    20 1   
    13     5     6 1   
    14     5    21 1   
    15     5    22 1   
    16     6    23 1   
    17     6    24 1   
    18     7     8 1   
    19     7    25 1   
    20     7    26 1   
    21     8    13 1   
    22     8    27 1   
    23     8    28 1   
    24     9    11 1   
    25     9    12 1   
    26    10    13 2   
    27    11    14 2   
    28    11    31 1   
    29    12    13 1   
    30    12    15 2   
    31    14    15 1   
    32    14    29 1   
@<TRIPOS>SUBSTRUCTURE
     1 5TP         1 TEMP              0 ****  ****    0 ROOT
