@<TRIPOS>MOLECULE
5TQ
   38    40     1     0     0
SMALL
No Charge or Current Charge


@<TRIPOS>ATOM
      1 N12          1.5750    -0.0540    -0.1690 n3         1 5TQ      -0.716600
      2 C13          1.5790    -1.3120    -0.9470 c6         1 5TQ       0.172800
      3 C15          2.7500     0.8180    -0.4170 c3         1 5TQ       0.160800
      4 C17          5.2760     1.2440    -0.0830 c3         1 5TQ      -0.207400
      5 C01         -4.7190     0.1400     0.2830 ca         1 5TQ      -0.089000
      6 C02         -4.8780     1.5310     0.2670 ca         1 5TQ       0.133000
      7 C03         -3.7670     2.3630     0.0870 ca         1 5TQ      -0.120000
      8 C04         -2.4880     1.7990    -0.0720 ca         1 5TQ      -0.101000
      9 C05         -2.3020     0.3960    -0.0490 ca         1 5TQ       0.021200
     10 C06         -3.4350    -0.4300     0.1220 ca         1 5TQ      -0.153600
     11 C07         -3.2650    -1.9120     0.1210 c          1 5TQ       0.570600
     12 C08         -0.9470    -0.1790    -0.2120 cc         1 5TQ      -0.151400
     13 C09         -0.8560    -1.5750    -0.2360 cd         1 5TQ       0.074400
     14 N10         -1.9880    -2.3500    -0.0670 ns         1 5TQ      -0.378100
     15 C11          0.3020     0.6770    -0.3910 c6         1 5TQ       0.227000
     16 C14          0.4870    -2.2540    -0.4150 c6         1 5TQ      -0.048200
     17 C16          4.1090     0.2320     0.0380 c3         1 5TQ      -0.055400
     18 C18          6.5910     0.5930     0.3810 c          1 5TQ       0.718000
     19 O19         -4.1890    -2.6980     0.2700 o          1 5TQ      -0.571000
     20 F20         -6.1060     2.0720     0.4190 f          1 5TQ      -0.185000
     21 O21          6.8850     0.6650     1.5640 o          1 5TQ      -0.740000
     22 O22          7.2590    -0.0100    -0.4460 o          1 5TQ      -0.740000
     23 H131         1.4000    -1.1060    -2.0140 h1         1 5TQ       0.044200
     24 H151         2.8130     1.0650    -1.4860 h1         1 5TQ       0.021200
     25 H152         2.6070     1.7650     0.1210 h1         1 5TQ       0.021200
     26 H172         5.3330     1.5100    -1.1460 hc         1 5TQ       0.015700
     27 H171         5.0130     2.0860     0.5700 hc         1 5TQ       0.015700
     28 H011        -5.5930    -0.4920     0.4170 ha         1 5TQ       0.148000
     29 H031        -3.8950     3.4420     0.0690 ha         1 5TQ       0.127000
     30 H041        -1.6490     2.4730    -0.2160 ha         1 5TQ       0.125000
     31 H1          -1.9000    -3.3580    -0.0700 hn         1 5TQ       0.323500
     32 H111         0.2640     1.5260     0.3070 h1         1 5TQ       0.036700
     33 H141         0.3960    -3.1140    -1.0920 hc         1 5TQ       0.061700
     34 H161         4.0230    -0.0970     1.0810 hc         1 5TQ       0.047700
     35 H162         4.3520    -0.6540    -0.5600 hc         1 5TQ       0.047700
     36 H3           2.5420    -1.8350    -0.8740 h1         1 5TQ       0.044200
     37 H4           0.2930     1.1070    -1.4050 h1         1 5TQ       0.036700
     38 H5           0.8160    -2.6620     0.5500 hc         1 5TQ       0.061700
@<TRIPOS>BOND
     1     1     2 1   
     2     1     3 1   
     3     1    15 1   
     4     2    16 1   
     5     2    23 1   
     6     2    36 1   
     7     3    17 1   
     8     3    24 1   
     9     3    25 1   
    10     4    17 1   
    11     4    18 1   
    12     4    26 1   
    13     4    27 1   
    14     5     6 ar  
    15     5    10 ar  
    16     5    28 1   
    17     6     7 ar  
    18     6    20 1   
    19     7     8 ar  
    20     7    29 1   
    21     8     9 ar  
    22     8    30 1   
    23     9    10 ar  
    24     9    12 1   
    25    10    11 1   
    26    11    14 1   
    27    11    19 2   
    28    12    13 2   
    29    12    15 1   
    30    13    14 1   
    31    13    16 1   
    32    14    31 1   
    33    15    32 1   
    34    15    37 1   
    35    16    33 1   
    36    16    38 1   
    37    17    34 1   
    38    17    35 1   
    39    18    21 1   
    40    18    22 1   
@<TRIPOS>SUBSTRUCTURE
     1 5TQ         1 TEMP              0 ****  ****    0 ROOT
