@<TRIPOS>MOLECULE
5TQ
   38    40     1     0     0
SMALL
bcc


@<TRIPOS>ATOM
      1 N12          1.5370    -0.1040    -0.1970 n3         1 5TQ      -0.716600
      2 C13          1.5060    -1.3430    -0.9470 c6         1 5TQ       0.172800
      3 C15          2.6990     0.7190    -0.4920 c3         1 5TQ       0.160800
      4 C17          5.1530     1.1390    -0.1520 c3         1 5TQ      -0.207400
      5 C01         -4.6130     0.1740     0.3030 ca         1 5TQ      -0.107000
      6 C02         -4.7440     1.5350     0.2300 ca         1 5TQ       0.097900
      7 C03         -3.6510     2.3680     0.0150 ca         1 5TQ      -0.138000
      8 C04         -2.4010     1.8100    -0.1250 ca         1 5TQ      -0.119000
      9 C05         -2.2100     0.4180    -0.0570 ca         1 5TQ       0.021200
     10 C06         -3.3420    -0.3900     0.1560 ca         1 5TQ      -0.153600
     11 C07         -3.2170    -1.8470     0.2230 c          1 5TQ       0.713100
     12 C08         -0.9140    -0.1930    -0.1990 cc         1 5TQ      -0.151400
     13 C09         -0.8290    -1.5400    -0.1640 cd         1 5TQ       0.074400
     14 N10         -1.9480    -2.3080     0.0430 ns         1 5TQ      -0.445100
     15 C11          0.3160     0.6470    -0.3970 c6         1 5TQ       0.227000
     16 C14          0.4590    -2.2700    -0.3560 c6         1 5TQ      -0.048200
     17 C16          4.0010     0.1720     0.0760 c3         1 5TQ      -0.055400
     18 C18          6.5220     0.6950     0.3920 c          1 5TQ       0.928600
     19 O19         -4.1560    -2.6110     0.4120 o          1 5TQ      -0.646500
     20 F20         -5.9580     2.0900     0.3660 f          1 5TQ      -0.149900
     21 O21          6.5910    -0.4040     0.9760 o          1 5TQ      -0.845300
     22 O22          7.4680     1.4880     0.1980 o          1 5TQ      -0.845300
     23 H131         1.2910    -1.1710    -2.0150 h1         1 5TQ       0.044200
     24 H151         2.8050     0.8880    -1.5780 h1         1 5TQ       0.021200
     25 H152         2.5190     1.7050    -0.0520 h1         1 5TQ       0.021200
     26 H172         5.2630     1.3380    -1.2240 hc         1 5TQ       0.015700
     27 H171         4.9100     2.1120     0.2910 hc         1 5TQ       0.015700
     28 H011        -5.4770    -0.4570     0.4690 ha         1 5TQ       0.166000
     29 H031        -3.7870     3.4400    -0.0410 ha         1 5TQ       0.145000
     30 H041        -1.5600     2.4680    -0.2960 ha         1 5TQ       0.143000
     31 H1          -1.8330    -3.3130     0.0620 hn         1 5TQ       0.323500
     32 H111         0.3100     1.4760     0.3180 h1         1 5TQ       0.036700
     33 H141         0.3050    -3.1280    -1.0150 hc         1 5TQ       0.061700
     34 H161         3.8680    -0.0110     1.1450 hc         1 5TQ       0.047700
     35 H162         4.2460    -0.7920    -0.3750 hc         1 5TQ       0.047700
     36 H3           2.4780    -1.8320    -0.8960 h1         1 5TQ       0.044200
     37 H4           0.2790     1.1110    -1.4000 h1         1 5TQ       0.036700
     38 H5           0.8040    -2.6670     0.6040 hc         1 5TQ       0.061700
@<TRIPOS>BOND
     1     1     2 1   
     2     1     3 1   
     3     1    15 1   
     4     2    16 1   
     5     2    23 1   
     6     2    36 1   
     7     3    17 1   
     8     3    24 1   
     9     3    25 1   
    10     4    17 1   
    11     4    18 1   
    12     4    26 1   
    13     4    27 1   
    14     5     6 ar  
    15     5    10 ar  
    16     5    28 1   
    17     6     7 ar  
    18     6    20 1   
    19     7     8 ar  
    20     7    29 1   
    21     8     9 ar  
    22     8    30 1   
    23     9    10 ar  
    24     9    12 1   
    25    10    11 1   
    26    11    14 1   
    27    11    19 2   
    28    12    13 2   
    29    12    15 1   
    30    13    14 1   
    31    13    16 1   
    32    14    31 1   
    33    15    32 1   
    34    15    37 1   
    35    16    33 1   
    36    16    38 1   
    37    17    34 1   
    38    17    35 1   
    39    18    21 1   
    40    18    22 1   
@<TRIPOS>SUBSTRUCTURE
     1 5TQ         1 TEMP              0 ****  ****    0 ROOT
