@<TRIPOS>MOLECULE
5TS
   18    19     1     0     0
SMALL
No Charge or Current Charge


@<TRIPOS>ATOM
      1 C1          15.0660    38.0910    19.1130 cc         1 5TS       0.272900
      2 N1          14.0290    37.4150    19.5880 nd         1 5TS      -0.394300
      3 O1          14.1530    36.1170    18.9620 os         1 5TS      -0.099700
      4 S1          17.1650    35.0600    16.3360 ss         1 5TS       0.306000
      5 C2          15.7280    35.0440    17.3740 cd         1 5TS      -0.341500
      6 C3          15.2670    36.1470    18.1650 cd         1 5TS       0.323500
      7 C4          15.8700    37.3550    18.2250 cc         1 5TS      -0.285000
      8 C5          16.8340    33.3860    15.8850 cd         1 5TS      -0.294500
      9 C6          15.7050    32.8960    16.5040 cc         1 5TS      -0.079000
     10 C7          15.0730    33.8390    17.3530 cc         1 5TS      -0.090000
     11 S8          17.9240    32.5100    14.7310 s6         1 5TS       1.298100
     12 O9          17.8510    33.3780    13.5470 o          1 5TS      -0.691867
     13 O10         17.3120    31.1760    14.6260 o          1 5TS      -0.691867
     14 H1          15.2100    39.1150    19.4300 h4         1 5TS       0.030100
     15 H4          16.7620    37.7010    17.7190 ha         1 5TS       0.152000
     16 H6          15.3200    31.8890    16.3680 ha         1 5TS       0.150000
     17 H7          14.1710    33.6060    17.9130 ha         1 5TS       0.127000
     18 OXT         19.2180    32.6050    15.4240 o          1 5TS      -0.691867
@<TRIPOS>BOND
     1     1     2 2   
     2     1     7 1   
     3     1    14 1   
     4     2     3 1   
     5     3     6 1   
     6     4     5 1   
     7     4     8 1   
     8     5     6 1   
     9     5    10 2   
    10     6     7 2   
    11     7    15 1   
    12     8     9 2   
    13     8    11 1   
    14     9    10 1   
    15     9    16 1   
    16    10    17 1   
    17    11    12 1   
    18    11    13 1   
    19    11    18 1   
@<TRIPOS>SUBSTRUCTURE
     1 5TS         1 TEMP              0 ****  ****    0 ROOT
