@<TRIPOS>MOLECULE
5TS
   18    19     1     0     0
SMALL
abcg2


@<TRIPOS>ATOM
      1 C1          15.0040    38.1210    19.1260 cc         1 5TS       0.272900
      2 N1          14.0780    37.3220    19.5910 nd         1 5TS      -0.394300
      3 O1          14.2940    36.0930    18.9510 os         1 5TS      -0.099700
      4 S1          17.0740    35.0390    16.2770 ss         1 5TS       0.306000
      5 C2          15.7290    35.0310    17.3750 cd         1 5TS      -0.341500
      6 C3          15.3560    36.2060    18.1190 cd         1 5TS       0.323500
      7 C4          15.8480    37.4790    18.1900 cc         1 5TS      -0.285000
      8 C5          16.8040    33.3860    15.8660 cd         1 5TS      -0.294500
      9 C6          15.7320    32.8630    16.5370 cc         1 5TS      -0.079000
     10 C7          15.1160    33.8000    17.3990 cc         1 5TS      -0.090000
     11 S8          17.8860    32.5200    14.7470 s6         1 5TS       1.298100
     12 O9          18.1220    33.4520    13.6440 o          1 5TS      -0.691867
     13 O10         17.1380    31.3250    14.3660 o          1 5TS      -0.691867
     14 H1          15.0440    39.1420    19.4760 h4         1 5TS       0.030100
     15 H4          16.6840    37.8950    17.6570 ha         1 5TS       0.152000
     16 H6          15.4040    31.8420    16.4080 ha         1 5TS       0.150000
     17 H7          14.2530    33.5830    18.0120 ha         1 5TS       0.127000
     18 OXT         19.0930    32.2300    15.5230 o          1 5TS      -0.691867
@<TRIPOS>BOND
     1     1     2 2   
     2     1     7 1   
     3     1    14 1   
     4     2     3 1   
     5     3     6 1   
     6     4     5 1   
     7     4     8 1   
     8     5     6 1   
     9     5    10 2   
    10     6     7 2   
    11     7    15 1   
    12     8     9 2   
    13     8    11 1   
    14     9    10 1   
    15     9    16 1   
    16    10    17 1   
    17    11    12 1   
    18    11    13 1   
    19    11    18 1   
@<TRIPOS>SUBSTRUCTURE
     1 5TS         1 TEMP              0 ****  ****    0 ROOT
