@<TRIPOS>MOLECULE
5TT
   35    36     1     0     0
SMALL
No Charge or Current Charge


@<TRIPOS>ATOM
      1 CAI         -2.7420    -1.0260    -0.7450 c6         1 5TT       0.200300
      2 CAG         -4.0630    -1.2320     0.0360 c6         1 5TT      -0.080900
      3 CAF         -4.8420     0.0960     0.1790 c6         1 5TT      -0.074400
      4 CAH         -3.9380     1.1760     0.8190 c6         1 5TT      -0.080900
      5 CAJ         -2.6150     1.3450     0.0310 c6         1 5TT       0.200300
      6 NAO         -1.9070     0.0420    -0.1250 nh         1 5TT      -0.790400
      7 CAN         -0.4970    -0.0120    -0.2360 ca         1 5TT       0.298000
      8 CAE          0.1970    -1.1500     0.2150 ca         1 5TT      -0.166000
      9 CAC          1.5970    -1.2260     0.1150 ca         1 5TT      -0.068500
     10 CAD          0.2380     1.0550    -0.7910 ca         1 5TT      -0.166000
     11 CAB          1.6390     0.9820    -0.8950 ca         1 5TT      -0.068500
     12 CAM          2.3260    -0.1590    -0.4420 ca         1 5TT      -0.126300
     13 CAK          3.8420    -0.2430    -0.5570 c3         1 5TT       0.211100
     14 NAL          4.4740     0.1710     0.7060 n7         1 5TT      -0.859400
     15 CAA          5.9490     0.1700     0.6980 c3         1 5TT       0.144100
     16 H1          -2.1980    -1.9820    -0.7750 h1         1 5TT       0.035950
     17 H2          -2.9760    -0.7560    -1.7860 h1         1 5TT       0.035950
     18 H3          -4.6840    -1.9790    -0.4750 hc         1 5TT       0.047950
     19 H4          -3.8380    -1.6390     1.0320 hc         1 5TT       0.047950
     20 H5          -5.1840     0.4350    -0.8090 hc         1 5TT       0.040200
     21 H6          -5.7410    -0.0560     0.7910 hc         1 5TT       0.040200
     22 H7          -4.4700     2.1350     0.8610 hc         1 5TT       0.047950
     23 H8          -3.7100     0.8980     1.8570 hc         1 5TT       0.047950
     24 H9          -2.8330     1.7730    -0.9590 h1         1 5TT       0.035950
     25 H10         -1.9800     2.0640     0.5700 h1         1 5TT       0.035950
     26 H11         -0.3520    -1.9770     0.6580 ha         1 5TT       0.112500
     27 H12          2.1160    -2.1120     0.4740 ha         1 5TT       0.113500
     28 H13         -0.2710     1.9400    -1.1580 ha         1 5TT       0.112500
     29 H14          2.1890     1.8140    -1.3300 ha         1 5TT       0.113500
     30 H15          4.1270    -1.2740    -0.8100 h1         1 5TT       0.032700
     31 H16          4.1760     0.4010    -1.3830 h1         1 5TT       0.032700
     32 H17          4.1540     1.1240     0.9150 hn         1 5TT       0.411000
     33 H19          6.3380    -0.8340     0.4830 h1         1 5TT       0.028367
     34 H20          6.3370     0.8600    -0.0640 h1         1 5TT       0.028367
     35 H21          6.3410     0.4850     1.6740 h1         1 5TT       0.028367
@<TRIPOS>BOND
     1     1     2 1   
     2     1     6 1   
     3     1    16 1   
     4     1    17 1   
     5     2     3 1   
     6     2    18 1   
     7     2    19 1   
     8     3     4 1   
     9     3    20 1   
    10     3    21 1   
    11     4     5 1   
    12     4    22 1   
    13     4    23 1   
    14     5     6 1   
    15     5    24 1   
    16     5    25 1   
    17     6     7 1   
    18     7     8 ar  
    19     7    10 ar  
    20     8     9 ar  
    21     8    26 1   
    22     9    12 ar  
    23     9    27 1   
    24    10    11 ar  
    25    10    28 1   
    26    11    12 ar  
    27    11    29 1   
    28    12    13 1   
    29    13    14 1   
    30    13    30 1   
    31    13    31 1   
    32    14    15 1   
    33    14    32 1   
    34    15    33 1   
    35    15    34 1   
    36    15    35 1   
@<TRIPOS>SUBSTRUCTURE
     1 5TT         1 TEMP              0 ****  ****    0 ROOT
