@<TRIPOS>MOLECULE
5TT
   35    36     1     0     0
SMALL
abcg2


@<TRIPOS>ATOM
      1 CAI         -2.6220    -1.1230    -0.3980 c6         1 5TT       0.200300
      2 CAG         -3.9870    -1.2480     0.2580 c6         1 5TT      -0.080900
      3 CAF         -4.8090     0.0140     0.0360 c6         1 5TT      -0.074400
      4 CAH         -4.0210     1.2280     0.5060 c6         1 5TT      -0.080900
      5 CAJ         -2.6470     1.2870    -0.1470 c6         1 5TT       0.200300
      6 NAO         -1.9080     0.0580     0.0780 nh         1 5TT      -0.790400
      7 CAN         -0.5270     0.0850    -0.1200 ca         1 5TT       0.298000
      8 CAE          0.2640    -1.0060     0.2800 ca         1 5TT      -0.166000
      9 CAC          1.6360    -0.9930     0.1310 ca         1 5TT      -0.068500
     10 CAD          0.1400     1.1830    -0.6730 ca         1 5TT      -0.166000
     11 CAB          1.5250     1.1880    -0.8020 ca         1 5TT      -0.068500
     12 CAM          2.3000     0.1060    -0.4170 ca         1 5TT      -0.126300
     13 CAK          3.7960     0.1090    -0.5800 c3         1 5TT       0.211100
     14 NAL          4.4680    -0.2240     0.6610 n7         1 5TT      -0.859400
     15 CAA          5.9100    -0.2400     0.5250 c3         1 5TT       0.144100
     16 H1          -2.0360    -2.0160    -0.1880 h1         1 5TT       0.035950
     17 H2          -2.7460    -1.0760    -1.4910 h1         1 5TT       0.035950
     18 H3          -4.4970    -2.1220    -0.1520 hc         1 5TT       0.047950
     19 H4          -3.8570    -1.4240     1.3290 hc         1 5TT       0.047950
     20 H5          -5.0370     0.1170    -1.0300 hc         1 5TT       0.040200
     21 H6          -5.7660    -0.0490     0.5580 hc         1 5TT       0.040200
     22 H7          -4.5550     2.1530     0.2770 hc         1 5TT       0.047950
     23 H8          -3.8980     1.1910     1.5920 hc         1 5TT       0.047950
     24 H9          -2.7630     1.4980    -1.2230 h1         1 5TT       0.035950
     25 H10         -2.0890     2.1210     0.2820 h1         1 5TT       0.035950
     26 H11         -0.2000    -1.8710     0.7380 ha         1 5TT       0.112500
     27 H12          2.2070    -1.8510     0.4660 ha         1 5TT       0.113500
     28 H13         -0.4080     2.0490    -1.0160 ha         1 5TT       0.112500
     29 H14          2.0020     2.0640    -1.2270 ha         1 5TT       0.113500
     30 H15          4.0870    -0.6400    -1.3250 h1         1 5TT       0.032700
     31 H16          4.1110     1.0800    -0.9940 h1         1 5TT       0.032700
     32 H17          4.2090     0.4540     1.3670 hn         1 5TT       0.411000
     33 H19          6.2060    -1.0260    -0.1740 h1         1 5TT       0.028367
     34 H20          6.3420     0.7020     0.1590 h1         1 5TT       0.028367
     35 H21          6.3700    -0.4670     1.4870 h1         1 5TT       0.028367
@<TRIPOS>BOND
     1     1     2 1   
     2     1     6 1   
     3     1    16 1   
     4     1    17 1   
     5     2     3 1   
     6     2    18 1   
     7     2    19 1   
     8     3     4 1   
     9     3    20 1   
    10     3    21 1   
    11     4     5 1   
    12     4    22 1   
    13     4    23 1   
    14     5     6 1   
    15     5    24 1   
    16     5    25 1   
    17     6     7 1   
    18     7     8 ar  
    19     7    10 ar  
    20     8     9 ar  
    21     8    26 1   
    22     9    12 ar  
    23     9    27 1   
    24    10    11 ar  
    25    10    28 1   
    26    11    12 ar  
    27    11    29 1   
    28    12    13 1   
    29    13    14 1   
    30    13    30 1   
    31    13    31 1   
    32    14    15 1   
    33    14    32 1   
    34    15    33 1   
    35    15    34 1   
    36    15    35 1   
@<TRIPOS>SUBSTRUCTURE
     1 5TT         1 TEMP              0 ****  ****    0 ROOT
