@<TRIPOS>MOLECULE
5TU
   32    33     1     0     0
SMALL
No Charge or Current Charge


@<TRIPOS>ATOM
      1 N1          -5.5590    -0.9670    -0.5070 nt         1 5TU      -0.606000
      2 C4           3.1420     1.2500     0.0340 cc         1 5TU      -0.202400
      3 C5           3.9990     2.4970     0.0560 c3         1 5TU      -0.032900
      4 C6           3.8920    -0.0300     0.0160 c          1 5TU       0.545200
      5 C7          -0.5120     0.0810    -0.0390 ca         1 5TU       0.006200
      6 C8          -1.2460     1.2450     0.2850 ca         1 5TU      -0.123500
      7 C10         -3.3770     0.1060    -0.1210 ca         1 5TU      -0.154600
      8 C13         -4.8900     0.1520    -0.1550 c          1 5TU       0.619700
      9 O1          -5.5260     1.1560     0.1220 o          1 5TU      -0.607100
     10 C9          -2.6500     1.2570     0.2460 ca         1 5TU      -0.064500
     11 C11         -2.6520    -1.0620    -0.4450 ca         1 5TU      -0.064500
     12 C12         -1.2470    -1.0720    -0.4020 ca         1 5TU      -0.123500
     13 C2           0.9790     0.0690     0.0050 cd         1 5TU      -0.143200
     14 C1           1.6950    -1.1190    -0.0380 cc         1 5TU      -0.021400
     15 C3           1.7590     1.2890     0.0220 cd         1 5TU      -0.090000
     16 N            3.0900    -1.1860    -0.0260 n          1 5TU      -0.263000
     17 C            3.7760    -2.5000    -0.0540 c3         1 5TU       0.075300
     18 H1          -5.0570    -1.8090    -0.7400 hn         1 5TU       0.314000
     19 H2          -6.5670    -0.9480    -0.5330 hn         1 5TU       0.314000
     20 H3           4.6390     2.5190     0.9470 hc         1 5TU       0.047700
     21 H4           4.6460     2.5470    -0.8280 hc         1 5TU       0.047700
     22 H5           3.3870     3.4070     0.0680 hc         1 5TU       0.047700
     23 H6          -0.7470     2.1550     0.6000 ha         1 5TU       0.115500
     24 H7          -3.1750     2.1740     0.5090 ha         1 5TU       0.122500
     25 H8          -3.1630    -1.9760    -0.7380 ha         1 5TU       0.122500
     26 H9          -0.7460    -1.9920    -0.6830 ha         1 5TU       0.115500
     27 H10          1.2550    -2.1090    -0.0560 h4         1 5TU       0.201000
     28 H11          1.2760     2.2600     0.0090 ha         1 5TU       0.189000
     29 H12          4.4290    -2.5570    -0.9340 h1         1 5TU       0.055700
     30 H13          4.3850    -2.6180     0.8520 h1         1 5TU       0.055700
     31 H14          3.0520    -3.3220    -0.1010 h1         1 5TU       0.055700
     32 O            5.1170    -0.0920     0.0310 o          1 5TU      -0.556000
@<TRIPOS>BOND
     1     1     8 1   
     2     1    18 1   
     3     1    19 1   
     4     2     3 1   
     5     2     4 1   
     6     2    15 2   
     7     3    20 1   
     8     3    21 1   
     9     3    22 1   
    10     4    16 1   
    11     4    32 2   
    12     5     6 ar  
    13     5    12 ar  
    14     5    13 1   
    15     6    10 ar  
    16     6    23 1   
    17     7     8 1   
    18     7    10 ar  
    19     7    11 ar  
    20     8     9 2   
    21    10    24 1   
    22    11    12 ar  
    23    11    25 1   
    24    12    26 1   
    25    13    14 2   
    26    13    15 1   
    27    14    16 1   
    28    14    27 1   
    29    15    28 1   
    30    16    17 1   
    31    17    29 1   
    32    17    30 1   
    33    17    31 1   
@<TRIPOS>SUBSTRUCTURE
     1 5TU         1 TEMP              0 ****  ****    0 ROOT
