@<TRIPOS>MOLECULE
5TU
   32    33     1     0     0
SMALL
bcc


@<TRIPOS>ATOM
      1 N1          -5.4840    -0.8340    -0.6520 nt         1 5TU      -0.673000
      2 C4           3.0990     1.2350    -0.0730 cc         1 5TU      -0.202400
      3 C5           3.9120     2.4860    -0.1430 c3         1 5TU      -0.032900
      4 C6           3.8200    -0.0160     0.0130 c          1 5TU       0.687700
      5 C7          -0.4870     0.0400    -0.0570 ca         1 5TU       0.006200
      6 C8          -1.2030     1.0980     0.5060 ca         1 5TU      -0.141500
      7 C10         -3.3080     0.0560    -0.0630 ca         1 5TU      -0.154600
      8 C13         -4.8020     0.1330    -0.0200 c          1 5TU       0.686700
      9 O1          -5.3650     1.0450     0.5720 o          1 5TU      -0.607100
     10 C9          -2.5860     1.1050     0.5030 ca         1 5TU      -0.082500
     11 C11         -2.5970    -1.0020    -0.6260 ca         1 5TU      -0.082500
     12 C12         -1.2130    -1.0070    -0.6290 ca         1 5TU      -0.141500
     13 C2           0.9830     0.0340    -0.0430 cd         1 5TU      -0.143200
     14 C1           1.6850    -1.1310     0.0370 cc         1 5TU       0.028600
     15 C3           1.7400     1.2350    -0.0960 cd         1 5TU      -0.040000
     16 N            3.0370    -1.1590     0.0610 n          1 5TU      -0.330000
     17 C            3.7320    -2.4350     0.1580 c3         1 5TU       0.075300
     18 H1          -5.0520    -1.5710    -1.1780 hn         1 5TU       0.314000
     19 H2          -6.4910    -0.8140    -0.6440 hn         1 5TU       0.314000
     20 H3           4.5620     2.5870     0.7270 hc         1 5TU       0.047700
     21 H4           4.5590     2.4910    -1.0230 hc         1 5TU       0.047700
     22 H5           3.2710     3.3650    -0.1910 hc         1 5TU       0.047700
     23 H6          -0.6800     1.9220     0.9740 ha         1 5TU       0.133500
     24 H7          -3.1110     1.9360     0.9530 ha         1 5TU       0.140500
     25 H8          -3.0970    -1.8480    -1.0790 ha         1 5TU       0.140500
     26 H9          -0.6980    -1.8320    -1.1030 ha         1 5TU       0.133500
     27 H10          1.1970    -2.0930     0.1080 h4         1 5TU       0.151000
     28 H11          1.2200     2.1830    -0.1790 ha         1 5TU       0.139000
     29 H12          4.3990    -2.5710    -0.6910 h1         1 5TU       0.055700
     30 H13          4.3180    -2.4830     1.0740 h1         1 5TU       0.055700
     31 H14          3.0020    -3.2380     0.1630 h1         1 5TU       0.055700
     32 O            5.0440    -0.1060     0.0440 o          1 5TU      -0.631500
@<TRIPOS>BOND
     1     1     8 1   
     2     1    18 1   
     3     1    19 1   
     4     2     3 1   
     5     2     4 1   
     6     2    15 2   
     7     3    20 1   
     8     3    21 1   
     9     3    22 1   
    10     4    16 1   
    11     4    32 2   
    12     5     6 ar  
    13     5    12 ar  
    14     5    13 1   
    15     6    10 ar  
    16     6    23 1   
    17     7     8 1   
    18     7    10 ar  
    19     7    11 ar  
    20     8     9 2   
    21    10    24 1   
    22    11    12 ar  
    23    11    25 1   
    24    12    26 1   
    25    13    14 2   
    26    13    15 1   
    27    14    16 1   
    28    14    27 1   
    29    15    28 1   
    30    16    17 1   
    31    17    29 1   
    32    17    30 1   
    33    17    31 1   
@<TRIPOS>SUBSTRUCTURE
     1 5TU         1 TEMP              0 ****  ****    0 ROOT
