@<TRIPOS>MOLECULE
5TV
   38    40     1     0     0
SMALL
bcc


@<TRIPOS>ATOM
      1 C4          17.4400    -7.5800    16.6000 ca         1 5TV      -0.136300
      2 C8          20.3410    -7.5130    18.3200 c          1 5TV       0.670700
      3 F1          15.0900    -9.9880    14.2510 f          1 5TV      -0.137900
      4 CG          15.8580    -9.2000    15.0180 ca         1 5TV       0.151900
      5 CD1         16.6060    -8.2070    14.4190 ca         1 5TV      -0.173000
      6 CE1         17.4000    -7.4000    15.2220 ca         1 5TV      -0.078000
      7 CE2         16.6690    -8.5890    17.1720 ca         1 5TV      -0.078000
      8 CD2         15.8760    -9.4090    16.3850 ca         1 5TV      -0.173000
      9 C           18.2780    -6.6680    17.4530 c3         1 5TV       0.184400
     10 O           19.0200    -7.4390    18.4040 os         1 5TV      -0.426900
     11 OH          20.9990    -7.0440    17.4300 o          1 5TV      -0.520000
     12 C9          20.9250    -8.2510    19.4750 ca         1 5TV      -0.121600
     13 C10         20.1280    -8.7730    20.4890 ca         1 5TV      -0.066500
     14 C11         20.7360    -9.4380    21.5400 ca         1 5TV       0.016900
     15 CL1         19.7550   -10.0940    22.8010 cl         1 5TV      -0.089900
     16 C12         22.1110    -9.5920    21.6080 ca         1 5TV      -0.086000
     17 C13         22.8810    -9.0600    20.5850 ca         1 5TV       0.016900
     18 C14         22.3080    -8.3910    19.5190 ca         1 5TV      -0.066500
     19 CL2         24.5980    -9.2350    20.6540 cl         1 5TV      -0.089900
     20 CA          17.4170    -5.7010    18.2620 c3         1 5TV       0.037300
     21 N           18.2180    -4.8790    19.1360 na         1 5TV      -0.195900
     22 C16         18.4740    -5.1220    20.4410 cc         1 5TV       0.395400
     23 N2          19.3050    -4.2500    20.9480 nd         1 5TV      -0.670000
     24 C17         19.6120    -3.4040    19.9190 cd         1 5TV       0.301200
     25 C18         18.9520    -3.7790    18.7840 cc         1 5TV      -0.267600
     26 H1          16.5780    -8.0660    13.3460 ha         1 5TV       0.155500
     27 H2          17.9980    -6.6230    14.7620 ha         1 5TV       0.141000
     28 H3          16.6810    -8.7520    18.2430 ha         1 5TV       0.141000
     29 H4          15.2800   -10.1960    16.8280 ha         1 5TV       0.155500
     30 H5          18.9620    -6.0990    16.8200 h1         1 5TV       0.086700
     31 H6          19.0530    -8.6670    20.4700 ha         1 5TV       0.167500
     32 H7          22.5720   -10.1120    22.4360 ha         1 5TV       0.166000
     33 H8          22.9270    -7.9830    18.7320 ha         1 5TV       0.167500
     34 H9          16.8590    -5.0670    17.5730 h1         1 5TV       0.074700
     35 H10         16.6920    -6.2450    18.8690 h1         1 5TV       0.074700
     36 H11         18.0160    -5.9460    20.9690 h5         1 5TV       0.054100
     37 H12         20.2840    -2.5690    20.0470 h4         1 5TV       0.040100
     38 H13         18.9310    -3.3680    17.7880 h4         1 5TV       0.175000
@<TRIPOS>BOND
     1     1     6 ar  
     2     1     7 ar  
     3     1     9 1   
     4     2    10 1   
     5     2    11 2   
     6     2    12 1   
     7     3     4 1   
     8     4     5 ar  
     9     4     8 ar  
    10     5     6 ar  
    11     5    26 1   
    12     6    27 1   
    13     7     8 ar  
    14     7    28 1   
    15     8    29 1   
    16     9    10 1   
    17     9    20 1   
    18     9    30 1   
    19    12    13 ar  
    20    12    18 ar  
    21    13    14 ar  
    22    13    31 1   
    23    14    15 1   
    24    14    16 ar  
    25    16    17 ar  
    26    16    32 1   
    27    17    18 ar  
    28    17    19 1   
    29    18    33 1   
    30    20    21 1   
    31    20    34 1   
    32    20    35 1   
    33    21    22 1   
    34    21    25 1   
    35    22    23 2   
    36    22    36 1   
    37    23    24 1   
    38    24    25 2   
    39    24    37 1   
    40    25    38 1   
@<TRIPOS>SUBSTRUCTURE
     1 5TV         1 TEMP              0 ****  ****    0 ROOT
