@<TRIPOS>MOLECULE
5TV
   38    40     1     0     0
SMALL
No Charge or Current Charge


@<TRIPOS>ATOM
      1 C4          17.6310    -7.4660    16.7130 ca         1 5TV      -0.136300
      2 C8          20.2370    -7.8270    18.2500 c          1 5TV       0.621700
      3 F1          15.7400   -10.1880    14.1870 f          1 5TV      -0.173000
      4 CG          16.3530    -9.3060    15.0060 ca         1 5TV       0.187000
      5 CD1         17.1660    -8.2990    14.4650 ca         1 5TV      -0.155000
      6 CE1         17.8050    -7.3800    15.3160 ca         1 5TV      -0.060000
      7 CE2         16.8130    -8.4840    17.2480 ca         1 5TV      -0.060000
      8 CD2         16.1750    -9.4020    16.3940 ca         1 5TV      -0.155000
      9 C           18.3300    -6.4660    17.6340 c3         1 5TV       0.207600
     10 O           19.0790    -7.1930    18.6270 os         1 5TV      -0.450100
     11 OH          20.7230    -7.7470    17.1290 o          1 5TV      -0.471000
     12 C9          20.8970    -8.5900    19.3740 ca         1 5TV      -0.121600
     13 C10         20.3000    -8.6780    20.6550 ca         1 5TV      -0.048500
     14 C11         20.9320    -9.3930    21.6870 ca         1 5TV       0.108500
     15 Cl1         20.1770    -9.4920    23.2720 cl         1 5TV      -0.181500
     16 C12         22.1610   -10.0290    21.4580 ca         1 5TV      -0.068000
     17 C13         22.7600    -9.9490    20.1920 ca         1 5TV       0.108500
     18 C14         22.1350    -9.2360    19.1560 ca         1 5TV      -0.048500
     19 Cl2         24.3010   -10.7470    19.9020 cl         1 5TV      -0.181500
     20 CA          17.3230    -5.5630    18.3790 c3         1 5TV       0.066600
     21 N           17.9670    -4.5220    19.2010 na         1 5TV      -0.174500
     22 C16         18.4940    -4.6940    20.4640 cc         1 5TV       0.395400
     23 N2          19.0030    -3.5570    20.9190 nd         1 5TV      -0.670000
     24 C17         18.8000    -2.6290    19.9180 cd         1 5TV       0.235900
     25 C18         18.1630    -3.2040    18.8480 cc         1 5TV      -0.235000
     26 H1          17.3000    -8.2330    13.3880 ha         1 5TV       0.137500
     27 H2          18.4360    -6.6040    14.8880 ha         1 5TV       0.123000
     28 H3          16.6740    -8.5680    18.3240 ha         1 5TV       0.123000
     29 H4          15.5450   -10.1860    16.8060 ha         1 5TV       0.137500
     30 H5          18.9930    -5.8150    17.0460 h1         1 5TV       0.086700
     31 H6          19.3460    -8.1990    20.8620 ha         1 5TV       0.149500
     32 H7          22.6470   -10.5810    22.2580 ha         1 5TV       0.148000
     33 H8          22.6180    -9.1880    18.1820 ha         1 5TV       0.149500
     34 H9          16.6740    -5.0740    17.6420 h1         1 5TV       0.074700
     35 H10         16.6860    -6.1800    19.0240 h1         1 5TV       0.074700
     36 H11         18.4730    -5.6470    20.9810 h5         1 5TV       0.054100
     37 H12         19.1240    -1.6000    20.0210 h4         1 5TV       0.040100
     38 H13         17.8500    -2.7820    17.9010 h4         1 5TV       0.157000
@<TRIPOS>BOND
     1     1     6 ar  
     2     1     7 ar  
     3     1     9 1   
     4     2    10 1   
     5     2    11 2   
     6     2    12 1   
     7     3     4 1   
     8     4     5 ar  
     9     4     8 ar  
    10     5     6 ar  
    11     5    26 1   
    12     6    27 1   
    13     7     8 ar  
    14     7    28 1   
    15     8    29 1   
    16     9    10 1   
    17     9    20 1   
    18     9    30 1   
    19    12    13 ar  
    20    12    18 ar  
    21    13    14 ar  
    22    13    31 1   
    23    14    15 1   
    24    14    16 ar  
    25    16    17 ar  
    26    16    32 1   
    27    17    18 ar  
    28    17    19 1   
    29    18    33 1   
    30    20    21 1   
    31    20    34 1   
    32    20    35 1   
    33    21    22 1   
    34    21    25 1   
    35    22    23 2   
    36    22    36 1   
    37    23    24 1   
    38    24    25 2   
    39    24    37 1   
    40    25    38 1   
@<TRIPOS>SUBSTRUCTURE
     1 5TV         1 TEMP              0 ****  ****    0 ROOT
