@<TRIPOS>MOLECULE
5TY
   27    28     1     0     0
SMALL
No Charge or Current Charge


@<TRIPOS>ATOM
      1 C5           0.1830    -0.7320    -0.0030 ca         1 5TY       0.273800
      2 C8           1.0730    -1.8770    -0.0370 cc         1 5TY      -0.397800
      3 C10         -0.2180     1.6260     0.0790 ca         1 5TY       0.215900
      4 C15         -3.9000    -1.5000    -0.0670 c3         1 5TY       0.228100
      5 C1           0.6960     0.5630     0.0490 ca         1 5TY      -0.353600
      6 C2           2.1650     0.7830     0.0700 c          1 5TY       0.592600
      7 C3          -1.9510     0.1200     0.0090 ca         1 5TY       0.404900
      8 N4          -1.1410    -0.9590    -0.0230 nb         1 5TY      -0.269000
      9 N6           2.9790    -0.3700     0.0350 n          1 5TY      -0.294000
     10 N7          -1.5450     1.4060     0.0590 nb         1 5TY      -0.256000
     11 C9           2.4350    -1.6550    -0.0170 cd         1 5TY      -0.013400
     12 N11         -3.3510    -0.1180    -0.0120 nh         1 5TY      -0.765300
     13 O12          2.6340     1.9130     0.1150 o          1 5TY      -0.556000
     14 C14         -4.3280     1.0030     0.0190 c3         1 5TY       0.228100
     15 H1           0.6830    -2.8910    -0.0770 ha         1 5TY       0.214000
     16 H2           0.1050     2.6650     0.1200 h4         1 5TY       0.039100
     17 H3           4.7430     0.3400     0.9710 h1         1 5TY       0.052033
     18 H4           4.9640    -1.1540     0.0240 h1         1 5TY       0.052033
     19 H5           4.7590     0.4060    -0.8150 h1         1 5TY       0.052033
     20 H6          -3.5740    -2.0780     0.8090 h1         1 5TY       0.045033
     21 H7          -4.9980    -1.4980    -0.0750 h1         1 5TY       0.045033
     22 H8          -3.5600    -2.0130    -0.9760 h1         1 5TY       0.045033
     23 H9           3.1770    -2.4500    -0.0390 h4         1 5TY       0.197000
     24 H10         -4.2040     1.5950     0.9360 h1         1 5TY       0.045033
     25 H11         -4.1870     1.6610    -0.8490 h1         1 5TY       0.045033
     26 H12         -5.3630     0.6360    -0.0040 h1         1 5TY       0.045033
     27 C13          4.4490    -0.1860     0.0550 c3         1 5TY       0.084300
@<TRIPOS>BOND
     1     1     2 1   
     2     1     5 ar  
     3     1     8 ar  
     4     2    11 2   
     5     2    15 1   
     6     3     5 ar  
     7     3    10 ar  
     8     3    16 1   
     9     4    12 1   
    10     4    20 1   
    11     4    21 1   
    12     4    22 1   
    13     5     6 1   
    14     6     9 1   
    15     6    13 2   
    16     7     8 ar  
    17     7    10 ar  
    18     7    12 1   
    19     9    11 1   
    20     9    27 1   
    21    11    23 1   
    22    12    14 1   
    23    14    24 1   
    24    14    25 1   
    25    14    26 1   
    26    17    27 1   
    27    18    27 1   
    28    19    27 1   
@<TRIPOS>SUBSTRUCTURE
     1 5TY         1 TEMP              0 ****  ****    0 ROOT
