@<TRIPOS>MOLECULE
5TY
   27    28     1     0     0
SMALL
bcc


@<TRIPOS>ATOM
      1 C5           0.1380    -0.7720    -0.0190 ca         1 5TY       0.602100
      2 C8           1.0490    -1.8680    -0.0530 cc         1 5TY      -0.347800
      3 C10         -0.2560     1.5690     0.0610 ca         1 5TY       0.544200
      4 C15         -3.8030    -1.4740    -0.0290 c3         1 5TY       0.228100
      5 C1           0.6750     0.5260     0.0410 ca         1 5TY      -0.484200
      6 C2           2.1000     0.7800     0.0680 c          1 5TY       0.735100
      7 C3          -1.9680     0.0850    -0.0160 ca         1 5TY       0.930900
      8 N4          -1.1750    -0.9860    -0.0460 nb         1 5TY      -0.795000
      9 N6           2.8980    -0.3510     0.0310 n          1 5TY      -0.361000
     10 N7          -1.5490     1.3740     0.0340 nb         1 5TY      -0.782000
     11 C9           2.3730    -1.6080    -0.0260 cd         1 5TY       0.036600
     12 N11         -3.2920    -0.1180    -0.0350 nh         1 5TY      -0.765300
     13 O12          2.6050     1.8940     0.1200 o          1 5TY      -0.631500
     14 C14         -4.2070     1.0060     0.0130 c3         1 5TY       0.228100
     15 H1           0.6920    -2.8870    -0.0980 ha         1 5TY       0.164000
     16 H2           0.0820     2.5990     0.1060 h4         1 5TY       0.039100
     17 H3           4.6440     0.3420     0.9780 h1         1 5TY       0.052033
     18 H4           4.8260    -1.1310     0.0200 h1         1 5TY       0.052033
     19 H5           4.6710     0.4290    -0.7900 h1         1 5TY       0.052033
     20 H6          -3.4780    -2.0240     0.8560 h1         1 5TY       0.045033
     21 H7          -4.8880    -1.4430    -0.0290 h1         1 5TY       0.045033
     22 H8          -3.4760    -2.0310    -0.9080 h1         1 5TY       0.045033
     23 H9           3.0980    -2.4090    -0.0520 h4         1 5TY       0.147000
     24 H10         -4.1960     1.5060     0.9840 h1         1 5TY       0.045033
     25 H11         -3.9680     1.7470    -0.7470 h1         1 5TY       0.045033
     26 H12         -5.2140     0.6430    -0.1700 h1         1 5TY       0.045033
     27 C13          4.3410    -0.1610     0.0620 c3         1 5TY       0.084300
@<TRIPOS>BOND
     1     1     2 1   
     2     1     5 ar  
     3     1     8 ar  
     4     2    11 2   
     5     2    15 1   
     6     3     5 ar  
     7     3    10 ar  
     8     3    16 1   
     9     4    12 1   
    10     4    20 1   
    11     4    21 1   
    12     4    22 1   
    13     5     6 1   
    14     6     9 1   
    15     6    13 2   
    16     7     8 ar  
    17     7    10 ar  
    18     7    12 1   
    19     9    11 1   
    20     9    27 1   
    21    11    23 1   
    22    12    14 1   
    23    14    24 1   
    24    14    25 1   
    25    14    26 1   
    26    17    27 1   
    27    18    27 1   
    28    19    27 1   
@<TRIPOS>SUBSTRUCTURE
     1 5TY         1 TEMP              0 ****  ****    0 ROOT
