@<TRIPOS>MOLECULE
5TZ
   21    22     1     0     0
SMALL
abcg2


@<TRIPOS>ATOM
      1 C1           1.2950    -0.3640     0.0070 cc         1 5TZ       0.303000
      2 N2          -0.4510    -1.9900    -0.0420 nb         1 5TZ      -0.703000
      3 C3          -0.1360    -0.6940    -0.0110 ca         1 5TZ       0.251000
      4 C4          -1.7330    -2.3180    -0.0580 ca         1 5TZ       0.289900
      5 C5          -2.7650    -1.3900    -0.0460 ca         1 5TZ      -0.125000
      6 C6          -2.4490    -0.0370    -0.0150 ca         1 5TZ      -0.119600
      7 C8          -3.5370     1.0350    -0.0030 c          1 5TZ       0.714600
      8 O1          -3.1460     2.2160     0.0230 o          1 5TZ      -0.712500
      9 O           -4.7110     0.6250    -0.0220 o          1 5TZ      -0.712500
     10 C7          -1.1030     0.3080     0.0040 ca         1 5TZ      -0.086000
     11 N1           1.6900     0.9490     0.0570 nc         1 5TZ      -0.700000
     12 C2           2.2960    -1.2800    -0.0230 cd         1 5TZ      -0.248000
     13 S            3.8220    -0.4780     0.0160 ss         1 5TZ      -0.187400
     14 C            2.9810     1.0510     0.0690 cd         1 5TZ       0.693300
     15 N            3.6600     2.2150     0.1750 nv         1 5TZ      -1.049900
     16 H1          -1.9570    -3.3790    -0.0830 h4         1 5TZ      -0.009900
     17 H2          -3.7940    -1.7210    -0.0620 ha         1 5TZ       0.134000
     18 H4          -0.8060     1.3460     0.0290 ha         1 5TZ       0.154000
     19 H5           2.2240    -2.3540    -0.0670 h4         1 5TZ       0.171000
     20 H6           4.6220     2.2410    -0.1180 hn         1 5TZ       0.470500
     21 H7           3.1400     3.0510    -0.0400 hn         1 5TZ       0.470500
@<TRIPOS>BOND
     1     1     3 1   
     2     1    11 1   
     3     1    12 2   
     4     2     3 ar  
     5     2     4 ar  
     6     3    10 ar  
     7     4     5 ar  
     8     4    16 1   
     9     5     6 ar  
    10     5    17 1   
    11     6     7 1   
    12     6    10 ar  
    13     7     8 1   
    14     7     9 1   
    15    10    18 1   
    16    11    14 2   
    17    12    13 1   
    18    12    19 1   
    19    13    14 1   
    20    14    15 1   
    21    15    20 1   
    22    15    21 1   
@<TRIPOS>SUBSTRUCTURE
     1 5TZ         1 TEMP              0 ****  ****    0 ROOT
