@<TRIPOS>MOLECULE
5TZ
   21    22     1     0     0
SMALL
No Charge or Current Charge


@<TRIPOS>ATOM
      1 C1           1.3290    -0.2890     0.0300 cc         1 5TZ       0.303000
      2 N2          -0.4420    -2.0050    -0.0560 nb         1 5TZ      -0.703000
      3 C3          -0.1100    -0.6820    -0.0040 ca         1 5TZ       0.251000
      4 C4          -1.7490    -2.3470    -0.0860 ca         1 5TZ       0.289900
      5 C5          -2.7880    -1.4060    -0.0670 ca         1 5TZ      -0.125000
      6 C6          -2.4810    -0.0290    -0.0130 ca         1 5TZ      -0.119600
      7 C8          -3.5690     1.0290     0.0100 c          1 5TZ       0.714600
      8 O1          -3.2380     2.2050     0.0560 o          1 5TZ      -0.712500
      9 O           -4.7360     0.6660    -0.0190 o          1 5TZ      -0.712500
     10 C7          -1.1110     0.3200     0.0180 ca         1 5TZ      -0.086000
     11 N1           1.7650     1.0190     0.0810 nc         1 5TZ      -0.700000
     12 C2           2.3090    -1.2610     0.0070 cd         1 5TZ      -0.248000
     13 S            3.9020    -0.5230     0.0530 ss         1 5TZ      -0.187400
     14 C            3.0690     1.0190     0.1030 cd         1 5TZ       0.693300
     15 N            3.6760     2.2080     0.1400 nv         1 5TZ      -1.049900
     16 H1          -1.9680    -3.4130    -0.1280 h4         1 5TZ      -0.009900
     17 H2          -3.8180    -1.7510    -0.0930 ha         1 5TZ       0.134000
     18 H4          -0.8200     1.3660     0.0600 ha         1 5TZ       0.154000
     19 H5           2.1870    -2.3370    -0.0330 h4         1 5TZ       0.171000
     20 H6           4.6400     2.2390    -0.1710 hn         1 5TZ       0.470500
     21 H7           3.0940     3.0020    -0.0980 hn         1 5TZ       0.470500
@<TRIPOS>BOND
     1     1     3 1   
     2     1    11 1   
     3     1    12 2   
     4     2     3 ar  
     5     2     4 ar  
     6     3    10 ar  
     7     4     5 ar  
     8     4    16 1   
     9     5     6 ar  
    10     5    17 1   
    11     6     7 1   
    12     6    10 ar  
    13     7     8 1   
    14     7     9 1   
    15    10    18 1   
    16    11    14 2   
    17    12    13 1   
    18    12    19 1   
    19    13    14 1   
    20    14    15 1   
    21    15    20 1   
    22    15    21 1   
@<TRIPOS>SUBSTRUCTURE
     1 5TZ         1 TEMP              0 ****  ****    0 ROOT
