@<TRIPOS>MOLECULE
5U0
   56    55     1     0     0
SMALL
No Charge or Current Charge


@<TRIPOS>ATOM
      1 CAB         -8.2530    -1.3420    -0.2720 c3         1 5U0      -0.055900
      2 CAA         -8.6160    -0.0280     0.4030 c2         1 5U0      -0.112400
      3 CAD        -10.1140     0.2210     0.4100 c3         1 5U0      -0.055900
      4 CAC         -7.7390     0.8420     0.9390 c2         1 5U0      -0.223200
      5 CAE         -6.2290     0.7000     1.0210 c3         1 5U0      -0.036200
      6 CAF         -5.5230     1.2520    -0.2360 c3         1 5U0      -0.038200
      7 CAG         -4.0160     1.0340    -0.2200 c2         1 5U0      -0.111400
      8 CAI         -3.2780     2.0380     0.6590 c3         1 5U0      -0.055900
      9 CAH         -3.4310     0.0540    -0.9340 c2         1 5U0      -0.223200
     10 CAJ         -1.9490    -0.2570    -1.0420 c3         1 5U0      -0.036200
     11 CAK         -1.4660    -1.1930     0.0870 c3         1 5U0      -0.040200
     12 CAL          0.0350    -1.4450     0.0570 c2         1 5U0      -0.088400
     13 CAN          0.4540    -2.4480    -1.0100 c3         1 5U0      -0.060900
     14 CAM          0.8780    -0.8380     0.9150 c2         1 5U0      -0.221200
     15 CAO          2.3800    -1.0110     1.0030 c3         1 5U0       0.095800
     16 SAP          3.1760    -0.0050    -0.3250 ss         1 5U0      -0.386000
     17 CB           4.9600    -0.4040     0.0020 c3         1 5U0       0.055600
     18 CA           5.9210     0.3320    -0.9720 c3         1 5U0       0.130500
     19 N            5.7040    -0.1010    -2.4050 n8         1 5U0      -0.980200
     20 C            7.3950     0.2060    -0.4560 c          1 5U0       0.544100
     21 O            8.2740    -0.4210    -1.0370 o          1 5U0      -0.490000
     22 OAV          7.6040     0.9430     0.6840 os         1 5U0      -0.440100
     23 CAW          8.9230     0.9440     1.2610 c3         1 5U0       0.148900
     24 H1          -7.1720    -1.5050    -0.3380 hc         1 5U0       0.038367
     25 H2          -8.6800    -2.1930     0.2730 hc         1 5U0       0.038367
     26 H3          -8.6430    -1.3760    -1.2970 hc         1 5U0       0.038367
     27 H4         -10.6440    -0.5770     0.9440 hc         1 5U0       0.038367
     28 H5         -10.3670     1.1690     0.9000 hc         1 5U0       0.038367
     29 H6         -10.5120     0.2620    -0.6110 hc         1 5U0       0.038367
     30 H7          -8.1070     1.7620     1.3970 ha         1 5U0       0.164000
     31 H8          -5.8620     1.2270     1.9090 hc         1 5U0       0.045200
     32 H9          -5.9440    -0.3490     1.1590 hc         1 5U0       0.045200
     33 H10         -5.9580     0.7560    -1.1130 hc         1 5U0       0.045200
     34 H11         -5.7570     2.3170    -0.3510 hc         1 5U0       0.045200
     35 H12         -3.4400     3.0630     0.3060 hc         1 5U0       0.039700
     36 H13         -3.6230     1.9870     1.6980 hc         1 5U0       0.039700
     37 H14         -2.1960     1.8710     0.6810 hc         1 5U0       0.039700
     38 H15         -4.0510    -0.6150    -1.5340 ha         1 5U0       0.164000
     39 H16         -1.7440    -0.7190    -2.0140 hc         1 5U0       0.049200
     40 H17         -1.3550     0.6650    -1.0210 hc         1 5U0       0.049200
     41 H18         -1.7460    -0.7380     1.0460 hc         1 5U0       0.045700
     42 H19         -2.0160    -2.1410     0.0370 hc         1 5U0       0.045700
     43 H20          0.2030    -2.0890    -2.0140 hc         1 5U0       0.044033
     44 H21          1.5310    -2.6450    -1.0030 hc         1 5U0       0.044033
     45 H22         -0.0510    -3.4100    -0.8650 hc         1 5U0       0.044033
     46 H23          0.4870    -0.1340     1.6500 ha         1 5U0       0.177000
     47 H24          2.7430    -0.6660     1.9800 h1         1 5U0       0.057700
     48 H25          2.6610    -2.0670     0.8890 h1         1 5U0       0.057700
     49 H26          5.1900    -0.1070     1.0330 h1         1 5U0       0.065700
     50 H27          5.1100    -1.4880    -0.0780 h1         1 5U0       0.065700
     51 H28          5.6850     1.4030    -0.9040 h1         1 5U0       0.097700
     52 H29          6.3480     0.4190    -3.0140 hn         1 5U0       0.415000
     53 H30          6.0250    -1.0710    -2.5120 hn         1 5U0       0.415000
     54 H32          9.2280    -0.0730     1.5430 h1         1 5U0       0.049700
     55 H33          9.6610     1.3450     0.5540 h1         1 5U0       0.049700
     56 H34          8.9450     1.5670     2.1640 h1         1 5U0       0.049700
@<TRIPOS>BOND
     1     1     2 1   
     2     1    24 1   
     3     1    25 1   
     4     1    26 1   
     5     2     3 1   
     6     2     4 2   
     7     3    27 1   
     8     3    28 1   
     9     3    29 1   
    10     4     5 1   
    11     4    30 1   
    12     5     6 1   
    13     5    31 1   
    14     5    32 1   
    15     6     7 1   
    16     6    33 1   
    17     6    34 1   
    18     7     8 1   
    19     7     9 2   
    20     8    35 1   
    21     8    36 1   
    22     8    37 1   
    23     9    10 1   
    24     9    38 1   
    25    10    11 1   
    26    10    39 1   
    27    10    40 1   
    28    11    12 1   
    29    11    41 1   
    30    11    42 1   
    31    12    13 1   
    32    12    14 2   
    33    13    43 1   
    34    13    44 1   
    35    13    45 1   
    36    14    15 1   
    37    14    46 1   
    38    15    16 1   
    39    15    47 1   
    40    15    48 1   
    41    16    17 1   
    42    17    18 1   
    43    17    49 1   
    44    17    50 1   
    45    18    19 1   
    46    18    20 1   
    47    18    51 1   
    48    19    52 1   
    49    19    53 1   
    50    20    21 2   
    51    20    22 1   
    52    22    23 1   
    53    23    54 1   
    54    23    55 1   
    55    23    56 1   
@<TRIPOS>SUBSTRUCTURE
     1 5U0         1 TEMP              0 ****  ****    0 ROOT
