@<TRIPOS>MOLECULE
5U0
   56    55     1     0     0
SMALL
abcg2


@<TRIPOS>ATOM
      1 CAB         -8.1210    -1.3670     1.3400 c3         1 5U0      -0.055900
      2 CAA         -8.4850     0.0110     0.8730 c2         1 5U0      -0.112400
      3 CAD         -9.9630     0.2520     0.7570 c3         1 5U0      -0.055900
      4 CAC         -7.6070     0.9720     0.5720 c2         1 5U0      -0.223200
      5 CAE         -6.1120     0.9030     0.6080 c3         1 5U0      -0.036200
      6 CAF         -5.5030     1.0100    -0.8000 c3         1 5U0      -0.038200
      7 CAG         -3.9970     1.0190    -0.7860 c2         1 5U0      -0.111400
      8 CAI         -3.3720     2.2400    -0.1750 c3         1 5U0      -0.055900
      9 CAH         -3.3110    -0.0200    -1.2700 c2         1 5U0      -0.223200
     10 CAJ         -1.8280    -0.2250    -1.2720 c3         1 5U0      -0.036200
     11 CAK         -1.4160    -1.2910    -0.2420 c3         1 5U0      -0.040200
     12 CAL          0.0560    -1.5970    -0.2760 c2         1 5U0      -0.088400
     13 CAN          0.5160    -2.4800    -1.3970 c3         1 5U0      -0.060900
     14 CAM          0.8720    -1.0840     0.6480 c2         1 5U0      -0.221200
     15 CAO          2.3530    -1.2810     0.7180 c3         1 5U0       0.095800
     16 SAP          3.1600    -0.0590    -0.3720 ss         1 5U0      -0.386000
     17 CB           4.8960    -0.3980     0.0410 c3         1 5U0       0.055600
     18 CA           5.7670     0.7620    -0.4420 c3         1 5U0       0.130500
     19 N            5.5070     1.0380    -1.8310 n8         1 5U0      -0.980200
     20 C            7.2260     0.4300    -0.1370 c          1 5U0       0.544100
     21 O            8.0490     0.1480    -0.9700 o          1 5U0      -0.490000
     22 OAV          7.4750     0.4710     1.1630 os         1 5U0      -0.440100
     23 CAW          8.7930     0.1310     1.5970 c3         1 5U0       0.148900
     24 H1          -7.0490    -1.5400     1.4010 hc         1 5U0       0.038367
     25 H2          -8.5460    -1.5610     2.3290 hc         1 5U0       0.038367
     26 H3          -8.5430    -2.1210     0.6720 hc         1 5U0       0.038367
     27 H4         -10.4660     0.0780     1.7120 hc         1 5U0       0.038367
     28 H5         -10.1910     1.2670     0.4340 hc         1 5U0       0.038367
     29 H6         -10.4150    -0.4400     0.0410 hc         1 5U0       0.038367
     30 H7          -8.0060     1.9260     0.2330 ha         1 5U0       0.164000
     31 H8          -5.7360     1.7240     1.2260 hc         1 5U0       0.045200
     32 H9          -5.7590    -0.0180     1.0740 hc         1 5U0       0.045200
     33 H10         -5.8690     0.1760    -1.4030 hc         1 5U0       0.045200
     34 H11         -5.8710     1.9280    -1.2730 hc         1 5U0       0.045200
     35 H12         -3.8200     3.1460    -0.5900 hc         1 5U0       0.039700
     36 H13         -3.5450     2.2770     0.9030 hc         1 5U0       0.039700
     37 H14         -2.2970     2.2980    -0.3320 hc         1 5U0       0.039700
     38 H15         -3.8840    -0.8500    -1.6790 ha         1 5U0       0.164000
     39 H16         -1.5110    -0.5400    -2.2710 hc         1 5U0       0.049200
     40 H17         -1.2890     0.6980    -1.0520 hc         1 5U0       0.049200
     41 H18         -1.7050    -0.9420     0.7510 hc         1 5U0       0.045700
     42 H19         -1.9860    -2.2070    -0.4330 hc         1 5U0       0.045700
     43 H20          0.1210    -2.1330    -2.3530 hc         1 5U0       0.044033
     44 H21          1.5990    -2.5260    -1.4900 hc         1 5U0       0.044033
     45 H22          0.1430    -3.4980    -1.2590 hc         1 5U0       0.044033
     46 H23          0.4440    -0.4450     1.4140 ha         1 5U0       0.177000
     47 H24          2.7050    -1.1250     1.7390 h1         1 5U0       0.057700
     48 H25          2.6540    -2.2850     0.4140 h1         1 5U0       0.057700
     49 H26          4.9850    -0.5170     1.1210 h1         1 5U0       0.065700
     50 H27          5.2110    -1.3350    -0.4270 h1         1 5U0       0.065700
     51 H28          5.4990     1.6500     0.1390 h1         1 5U0       0.097700
     52 H29          6.0340     1.8460    -2.1370 hn         1 5U0       0.415000
     53 H30          5.8060     0.2630    -2.4100 hn         1 5U0       0.415000
     54 H32          9.0390    -0.8990     1.3440 h1         1 5U0       0.049700
     55 H33          9.5390     0.7970     1.1640 h1         1 5U0       0.049700
     56 H34          8.7910     0.2460     2.6770 h1         1 5U0       0.049700
@<TRIPOS>BOND
     1     1     2 1   
     2     1    24 1   
     3     1    25 1   
     4     1    26 1   
     5     2     3 1   
     6     2     4 2   
     7     3    27 1   
     8     3    28 1   
     9     3    29 1   
    10     4     5 1   
    11     4    30 1   
    12     5     6 1   
    13     5    31 1   
    14     5    32 1   
    15     6     7 1   
    16     6    33 1   
    17     6    34 1   
    18     7     8 1   
    19     7     9 2   
    20     8    35 1   
    21     8    36 1   
    22     8    37 1   
    23     9    10 1   
    24     9    38 1   
    25    10    11 1   
    26    10    39 1   
    27    10    40 1   
    28    11    12 1   
    29    11    41 1   
    30    11    42 1   
    31    12    13 1   
    32    12    14 2   
    33    13    43 1   
    34    13    44 1   
    35    13    45 1   
    36    14    15 1   
    37    14    46 1   
    38    15    16 1   
    39    15    47 1   
    40    15    48 1   
    41    16    17 1   
    42    17    18 1   
    43    17    49 1   
    44    17    50 1   
    45    18    19 1   
    46    18    20 1   
    47    18    51 1   
    48    19    52 1   
    49    19    53 1   
    50    20    21 2   
    51    20    22 1   
    52    22    23 1   
    53    23    54 1   
    54    23    55 1   
    55    23    56 1   
@<TRIPOS>SUBSTRUCTURE
     1 5U0         1 TEMP              0 ****  ****    0 ROOT
