@<TRIPOS>MOLECULE
5U1
   29    30     1     0     0
SMALL
No Charge or Current Charge


@<TRIPOS>ATOM
      1 N3           4.5050    -1.1120     0.0860 nv         1 5U1      -0.999200
      2 C4           3.2880    -0.5910     0.0530 cc         1 5U1       0.680700
      3 N2           3.0660     0.6650    -0.0830 n2         1 5U1      -0.594100
      4 N            1.6930     0.6770    -0.0380 na         1 5U1       0.112900
      5 C2           0.8880     1.8000    -0.1000 ca         1 5U1      -0.002000
      6 N1           2.1890    -1.3690     0.1890 na         1 5U1      -0.448300
      7 C3           1.0990    -0.5560     0.1400 ca         1 5U1       0.618000
      8 N4          -0.2090    -0.8170     0.2550 nb         1 5U1      -0.771000
      9 C5          -1.0140     0.2740     0.1760 ca         1 5U1       0.703300
     10 C1          -0.5110     1.6010     0.0090 ca         1 5U1      -0.150300
     11 C           -1.4580     2.7980    -0.0530 c3         1 5U1      -0.042800
     12 O           -2.3760     0.1150     0.3000 os         1 5U1      -0.420300
     13 C6          -3.0150    -1.1730     0.2270 c3         1 5U1       0.184300
     14 C8          -4.4270    -0.9920     0.8110 c3         1 5U1      -0.114600
     15 C7          -3.0490    -1.6190    -1.2510 c3         1 5U1      -0.114600
     16 H31N         5.2400    -0.4870    -0.2260 hn         1 5U1       0.528000
     17 H32N         4.6110    -2.0770    -0.2060 hn         1 5U1       0.528000
     18 H1           2.1700    -2.3600     0.3430 hn         1 5U1       0.418000
     19 H2           1.3590     2.7750    -0.2280 h4         1 5U1       0.201000
     20 HC1         -2.1690     2.6970    -0.8820 hc         1 5U1       0.075367
     21 HC2         -2.0380     2.8910     0.8730 hc         1 5U1       0.075367
     22 HC3         -0.9170     3.7410    -0.1980 hc         1 5U1       0.075367
     23 H6          -2.4830    -1.9210     0.8320 h1         1 5U1       0.073700
     24 H81C        -4.9920    -0.2440     0.2420 hc         1 5U1       0.063700
     25 H82C        -4.9800    -1.9380     0.7820 hc         1 5U1       0.063700
     26 H83C        -4.3700    -0.6630     1.8550 hc         1 5U1       0.063700
     27 H71C        -3.5340    -0.8600    -1.8760 hc         1 5U1       0.063700
     28 H72C        -2.0370    -1.7910    -1.6360 hc         1 5U1       0.063700
     29 H73C        -3.6080    -2.5560    -1.3540 hc         1 5U1       0.063700
@<TRIPOS>BOND
     1     1     2 1   
     2     1    16 1   
     3     1    17 1   
     4     2     3 2   
     5     2     6 1   
     6     3     4 1   
     7     4     5 1   
     8     4     7 2   
     9     5    10 ar  
    10     5    19 1   
    11     6     7 1   
    12     6    18 1   
    13     7     8 ar  
    14     8     9 ar  
    15     9    10 ar  
    16     9    12 1   
    17    10    11 1   
    18    11    20 1   
    19    11    21 1   
    20    11    22 1   
    21    12    13 1   
    22    13    14 1   
    23    13    15 1   
    24    13    23 1   
    25    14    24 1   
    26    14    25 1   
    27    14    26 1   
    28    15    27 1   
    29    15    28 1   
    30    15    29 1   
@<TRIPOS>SUBSTRUCTURE
     1 5U1         1 TEMP              0 ****  ****    0 ROOT
