@<TRIPOS>MOLECULE
5U1
   29    30     1     0     0
SMALL
bcc


@<TRIPOS>ATOM
      1 N3           4.4420    -1.1540     0.0630 nv         1 5U1      -0.888800
      2 C4           3.2240    -0.6190     0.0220 cc         1 5U1       0.680700
      3 N2           2.9570     0.6630    -0.0330 n2         1 5U1      -0.594100
      4 N            1.6000     0.7070     0.0070 na         1 5U1       0.062200
      5 C2           0.8180     1.8100    -0.0190 ca         1 5U1       0.030700
      6 N1           2.0820    -1.3700     0.0850 na         1 5U1      -0.398000
      7 C3           1.0440    -0.5130     0.0740 ca         1 5U1       0.618000
      8 N4          -0.2400    -0.7500     0.1150 nb         1 5U1      -0.771000
      9 C5          -1.0240     0.3110     0.0890 ca         1 5U1       0.768600
     10 C1          -0.5320     1.6530     0.0230 ca         1 5U1      -0.215600
     11 C           -1.4690     2.8160     0.0010 c3         1 5U1      -0.042800
     12 O           -2.3200     0.1780     0.1310 os         1 5U1      -0.397100
     13 C6          -2.9400    -1.1360     0.1810 c3         1 5U1       0.161100
     14 C8          -4.3110    -0.9180     0.7820 c3         1 5U1      -0.114600
     15 C7          -2.9950    -1.7310    -1.2110 c3         1 5U1      -0.114600
     16 H31N         5.2260    -0.5600    -0.1520 hn         1 5U1       0.472800
     17 H32N         4.5640    -2.1350    -0.1270 hn         1 5U1       0.472800
     18 H1           2.0090    -2.3770     0.1360 hn         1 5U1       0.367700
     19 H2           1.3210     2.7640    -0.0730 h4         1 5U1       0.219000
     20 HC1         -2.1320     2.7710    -0.8630 hc         1 5U1       0.075367
     21 HC2         -2.0920     2.8340     0.8950 hc         1 5U1       0.075367
     22 HC3         -0.9180     3.7530    -0.0440 hc         1 5U1       0.075367
     23 H6          -2.3440    -1.7720     0.8380 h1         1 5U1       0.073700
     24 H81C        -4.9250    -0.2760     0.1500 hc         1 5U1       0.063700
     25 H82C        -4.8170    -1.8790     0.8770 hc         1 5U1       0.063700
     26 H83C        -4.2460    -0.4750     1.7760 hc         1 5U1       0.063700
     27 H71C        -3.5720    -1.0970    -1.8860 hc         1 5U1       0.063700
     28 H72C        -2.0030    -1.8840    -1.6330 hc         1 5U1       0.063700
     29 H73C        -3.4860    -2.7040    -1.1620 hc         1 5U1       0.063700
@<TRIPOS>BOND
     1     1     2 1   
     2     1    16 1   
     3     1    17 1   
     4     2     3 2   
     5     2     6 1   
     6     3     4 1   
     7     4     5 1   
     8     4     7 2   
     9     5    10 ar  
    10     5    19 1   
    11     6     7 1   
    12     6    18 1   
    13     7     8 ar  
    14     8     9 ar  
    15     9    10 ar  
    16     9    12 1   
    17    10    11 1   
    18    11    20 1   
    19    11    21 1   
    20    11    22 1   
    21    12    13 1   
    22    13    14 1   
    23    13    15 1   
    24    13    23 1   
    25    14    24 1   
    26    14    25 1   
    27    14    26 1   
    28    15    27 1   
    29    15    28 1   
    30    15    29 1   
@<TRIPOS>SUBSTRUCTURE
     1 5U1         1 TEMP              0 ****  ****    0 ROOT
