@<TRIPOS>MOLECULE
5U2
   49    51     1     0     0
SMALL
abcg2


@<TRIPOS>ATOM
      1 C4          -2.9940    -0.7810     0.8850 cc         1 5U2      -0.023400
      2 C6          -5.1700     0.1960     0.5490 c          1 5U2       0.545200
      3 C8          -4.9030    -1.6160     2.1380 c3         1 5U2       0.076300
      4 C10          1.1400     1.0210    -0.8500 ca         1 5U2       0.191600
      5 N12          4.0130    -0.5370     0.0940 nq         1 5U2      -0.701600
      6 C13          5.5720     0.0790     1.3350 cy         1 5U2       0.134300
      7 C15         -0.9510    -0.0510    -0.3040 ca         1 5U2       0.056200
      8 C17          1.0520    -1.3590    -0.5830 ca         1 5U2       0.191600
      9 C20          1.2890     3.3840    -1.1100 c3         1 5U2       0.149900
     10 C22          1.0370    -3.7280    -0.3750 c3         1 5U2       0.149900
     11 C24          5.4690    -0.6630     0.0020 cy         1 5U2       0.125800
     12 C1          -4.5540     1.0950    -0.4010 cc         1 5U2      -0.205400
     13 C2          -3.2220     1.0030    -0.6560 cd         1 5U2      -0.089000
     14 C3          -2.3930     0.0440    -0.0160 cd         1 5U2      -0.140200
     15 N5          -4.3180    -0.7100     1.1590 n          1 5U2      -0.264000
     16 O7          -6.3670     0.2020     0.8300 o          1 5U2      -0.560000
     17 C9          -5.4440     2.0850    -1.0780 c3         1 5U2      -0.031900
     18 C14         -0.2230     1.1030    -0.5700 ca         1 5U2      -0.240000
     19 C16         -0.3130    -1.2890    -0.3180 ca         1 5U2      -0.240000
     20 C18          1.8030    -0.2110    -0.8660 ca         1 5U2      -0.153300
     21 O19          1.8930     2.1070    -1.1100 os         1 5U2      -0.335100
     22 O21          1.7300    -2.5200    -0.6150 os         1 5U2      -0.335100
     23 C23          4.1520     0.5860     1.0250 cy         1 5U2       0.125800
     24 O25          6.6230     0.9920     1.4240 oh         1 5U2      -0.648000
     25 H1          -2.4400    -1.5230     1.4430 h4         1 5U2       0.202000
     26 H2          -5.3890    -1.0550     2.9330 h1         1 5U2       0.055367
     27 H3          -5.6390    -2.2650     1.6670 h1         1 5U2       0.055367
     28 H4          -4.1170    -2.2280     2.5690 h1         1 5U2       0.055367
     29 H6           5.5640    -0.6190     2.1790 h1         1 5U2       0.049700
     30 H7           2.0790     4.0950    -1.3370 h1         1 5U2       0.040867
     31 H8           0.5100     3.4710    -1.8710 h1         1 5U2       0.040867
     32 H9           0.8610     3.6350    -0.1360 h1         1 5U2       0.040867
     33 H10          1.7740    -4.5240    -0.4400 h1         1 5U2       0.040867
     34 H11          0.5840    -3.7490     0.6190 h1         1 5U2       0.040867
     35 H12          0.2580    -3.9090    -1.1210 h1         1 5U2       0.040867
     36 H13          5.8530    -1.6840    -0.0660 h1         1 5U2       0.055200
     37 H14          5.9060    -0.0630    -0.8100 h1         1 5U2       0.055200
     38 H15         -2.7810     1.6710    -1.3880 ha         1 5U2       0.188000
     39 H16         -6.2020     1.5900    -1.6890 hc         1 5U2       0.046367
     40 H17         -5.9780     2.7030    -0.3540 hc         1 5U2       0.046367
     41 H18         -4.8700     2.7460    -1.7250 hc         1 5U2       0.046367
     42 H19          3.6400     0.5640    -1.6690 h1         1 5U2       0.047200
     43 H20          3.4710    -1.1760    -1.7900 h1         1 5U2       0.047200
     44 H21         -0.7210     2.0620    -0.5250 ha         1 5U2       0.118500
     45 H22         -0.8910    -2.1870    -0.1530 ha         1 5U2       0.118500
     46 H23          4.1930     1.5620     0.5220 h1         1 5U2       0.055200
     47 H24          3.4130     0.6290     1.8290 h1         1 5U2       0.055200
     48 H25          6.6160     1.3810     2.3040 ho         1 5U2       0.446000
     49 C11          3.2790    -0.3240    -1.1340 c3         1 5U2       0.235100
@<TRIPOS>BOND
     1     1    14 2   
     2     1    15 1   
     3     1    25 1   
     4     2    12 1   
     5     2    15 1   
     6     2    16 2   
     7     3    15 1   
     8     3    26 1   
     9     3    27 1   
    10     3    28 1   
    11     4    18 ar  
    12     4    20 ar  
    13     4    21 1   
    14     5    11 1   
    15     5    23 1   
    16     5    49 1   
    17     6    11 1   
    18     6    23 1   
    19     6    24 1   
    20     6    29 1   
    21     7    14 1   
    22     7    18 ar  
    23     7    19 ar  
    24     8    19 ar  
    25     8    20 ar  
    26     8    22 1   
    27     9    21 1   
    28     9    30 1   
    29     9    31 1   
    30     9    32 1   
    31    10    22 1   
    32    10    33 1   
    33    10    34 1   
    34    10    35 1   
    35    11    36 1   
    36    11    37 1   
    37    12    13 2   
    38    12    17 1   
    39    13    14 1   
    40    13    38 1   
    41    17    39 1   
    42    17    40 1   
    43    17    41 1   
    44    18    44 1   
    45    19    45 1   
    46    20    49 1   
    47    23    46 1   
    48    23    47 1   
    49    24    48 1   
    50    42    49 1   
    51    43    49 1   
@<TRIPOS>SUBSTRUCTURE
     1 5U2         1 TEMP              0 ****  ****    0 ROOT
