@<TRIPOS>MOLECULE
5U2
   49    51     1     0     0
SMALL
No Charge or Current Charge


@<TRIPOS>ATOM
      1 C4          -3.1140    -0.9420     0.6970 cc         1 5U2      -0.023400
      2 C6          -5.2700     0.2210     0.5790 c          1 5U2       0.545200
      3 C8          -5.1460    -1.9670     1.7250 c3         1 5U2       0.076300
      4 C10          1.1930     0.8990    -0.9320 ca         1 5U2       0.191600
      5 N12          4.1540    -0.3990     0.0330 nq         1 5U2      -0.701600
      6 C13          5.6030     0.2620     1.3470 cy         1 5U2       0.134300
      7 C15         -0.9620    -0.0940    -0.2790 ca         1 5U2       0.056200
      8 C17          1.0540    -1.4890    -0.4960 ca         1 5U2       0.191600
      9 C20          1.4240     3.3260    -1.3820 c3         1 5U2       0.149900
     10 C22          1.0010    -3.9310    -0.0670 c3         1 5U2       0.149900
     11 C24          5.6450    -0.4160    -0.0690 cy         1 5U2       0.125800
     12 C1          -4.5430     1.2750    -0.1710 cc         1 5U2      -0.205400
     13 C2          -3.1880     1.1830    -0.4370 cd         1 5U2      -0.089000
     14 C3          -2.4140     0.0500     0.0250 cd         1 5U2      -0.140200
     15 N5          -4.4800    -0.8720     0.9790 n          1 5U2      -0.264000
     16 O7          -6.4690     0.2830     0.8330 o          1 5U2      -0.560000
     17 C9          -5.3920     2.4420    -0.6280 c3         1 5U2      -0.031900
     18 C14         -0.1830     1.0240    -0.6440 ca         1 5U2      -0.240000
     19 C16         -0.3210    -1.3490    -0.2100 ca         1 5U2      -0.240000
     20 C18          1.8170    -0.3610    -0.8560 ca         1 5U2      -0.153300
     21 O19          1.9590     1.9950    -1.2890 os         1 5U2      -0.335100
     22 O21          1.6820    -2.7220    -0.4440 os         1 5U2      -0.335100
     23 C23          4.2540     0.8690     0.8190 cy         1 5U2       0.125800
     24 O25          6.6540     1.1810     1.6560 oh         1 5U2      -0.648000
     25 H1          -2.6740    -1.8470     1.0990 h4         1 5U2       0.202000
     26 H2          -5.5660    -1.5750     2.6600 h1         1 5U2       0.055367
     27 H3          -5.9570    -2.3880     1.1160 h1         1 5U2       0.055367
     28 H4          -4.4370    -2.7680     1.9660 h1         1 5U2       0.055367
     29 H6           5.4690    -0.4550     2.1680 h1         1 5U2       0.049700
     30 H7           2.2100     4.0310    -1.6820 h1         1 5U2       0.040867
     31 H8           0.6230     3.3740    -2.1310 h1         1 5U2       0.040867
     32 H9           1.0250     3.6550    -0.4140 h1         1 5U2       0.040867
     33 H10          1.6960    -4.7790    -0.0840 h1         1 5U2       0.040867
     34 H11          0.5920    -3.8480     0.9480 h1         1 5U2       0.040867
     35 H12          0.1810    -4.1500    -0.7620 h1         1 5U2       0.040867
     36 H13          6.1180    -1.4050    -0.0930 h1         1 5U2       0.055200
     37 H14          6.0660     0.2260    -0.8540 h1         1 5U2       0.055200
     38 H15         -2.7240     1.9730    -1.0170 ha         1 5U2       0.188000
     39 H16         -6.1960     2.1070    -1.2940 hc         1 5U2       0.046367
     40 H17         -5.8500     2.9540     0.2270 hc         1 5U2       0.046367
     41 H18         -4.7970     3.1840    -1.1750 hc         1 5U2       0.046367
     42 H19          3.6170     0.2580    -1.8890 h1         1 5U2       0.047200
     43 H20          3.4940    -1.4790    -1.6380 h1         1 5U2       0.047200
     44 H21         -0.6420     2.0030    -0.6720 ha         1 5U2       0.118500
     45 H22         -0.9010    -2.2280     0.0380 ha         1 5U2       0.118500
     46 H23          4.3820     1.7790     0.2180 h1         1 5U2       0.055200
     47 H24          3.4840     1.0240     1.5840 h1         1 5U2       0.055200
     48 H25          6.4170     1.6260     2.5000 ho         1 5U2       0.446000
     49 C11          3.3080    -0.5060    -1.1630 c3         1 5U2       0.235100
@<TRIPOS>BOND
     1     1    14 2   
     2     1    15 1   
     3     1    25 1   
     4     2    12 1   
     5     2    15 1   
     6     2    16 2   
     7     3    15 1   
     8     3    26 1   
     9     3    27 1   
    10     3    28 1   
    11     4    18 ar  
    12     4    20 ar  
    13     4    21 1   
    14     5    11 1   
    15     5    23 1   
    16     5    49 1   
    17     6    11 1   
    18     6    23 1   
    19     6    24 1   
    20     6    29 1   
    21     7    14 1   
    22     7    18 ar  
    23     7    19 ar  
    24     8    19 ar  
    25     8    20 ar  
    26     8    22 1   
    27     9    21 1   
    28     9    30 1   
    29     9    31 1   
    30     9    32 1   
    31    10    22 1   
    32    10    33 1   
    33    10    34 1   
    34    10    35 1   
    35    11    36 1   
    36    11    37 1   
    37    12    13 2   
    38    12    17 1   
    39    13    14 1   
    40    13    38 1   
    41    17    39 1   
    42    17    40 1   
    43    17    41 1   
    44    18    44 1   
    45    19    45 1   
    46    20    49 1   
    47    23    46 1   
    48    23    47 1   
    49    24    48 1   
    50    42    49 1   
    51    43    49 1   
@<TRIPOS>SUBSTRUCTURE
     1 5U2         1 TEMP              0 ****  ****    0 ROOT
