@<TRIPOS>MOLECULE
5U3
   52    54     1     0     0
SMALL
No Charge or Current Charge


@<TRIPOS>ATOM
      1 C4          -2.8360     2.0650    -0.5220 c3         1 5U3       0.121700
      2 C6          -3.5410     2.1600    -1.8980 c3         1 5U3      -0.103100
      3 C8          -0.7360     0.7150    -0.2600 cc         1 5U3       0.010600
      4 C10          1.4210    -0.4520    -0.0130 cd         1 5U3       0.348800
      5 C17          5.7950     0.6810    -1.1570 c3         1 5U3      -0.105100
      6 C20         -0.8090    -1.6540     0.0500 cd         1 5U3       0.010200
      7 C24         -2.5380    -2.9580     0.1530 cc         1 5U3       0.547900
      8 C26         -2.1490    -1.6370    -0.0080 cc         1 5U3      -0.358600
      9 C2          -3.6820     2.5360     0.7080 c3         1 5U3      -0.073700
     10 C3          -4.1970     3.9890     0.5550 c3         1 5U3      -0.088600
     11 N7          -2.1490     0.7530    -0.3280 n          1 5U3      -0.287000
     12 C9          -0.0250    -0.4650    -0.0740 cd         1 5U3      -0.222000
     13 C11          2.2250     0.7010    -0.1310 cd         1 5U3      -0.219000
     14 C12          3.5380     0.3190    -0.0220 cc         1 5U3      -0.161300
     15 N13          3.4400    -1.0730     0.1540 na         1 5U3       0.144800
     16 C14          4.5350    -2.0480     0.3020 c3         1 5U3       0.069900
     17 N15          2.1400    -1.5420     0.1610 nc         1 5U3      -0.563800
     18 C16          4.8000     1.1690    -0.0800 c3         1 5U3       0.258300
     19 C18          5.4790     1.2720     1.3040 c3         1 5U3      -0.105100
     20 O19          4.4350     2.4970    -0.4480 oh         1 5U3      -0.649000
     21 N21         -0.4340    -2.9840     0.2390 na         1 5U3       0.011800
     22 N23         -1.5650    -3.8200     0.3010 nd         1 5U3      -0.589800
     23 N25         -3.8100    -3.3610     0.1580 nv         1 5U3      -1.018900
     24 C27         -2.9410    -0.4280    -0.2090 c          1 5U3       0.617600
     25 O28         -4.1640    -0.4410    -0.2730 o          1 5U3      -0.572000
     26 H1          -2.0360     2.8130    -0.5930 h1         1 5U3       0.039700
     27 H2          -4.4780     1.5930    -1.9080 hc         1 5U3       0.049700
     28 H3          -3.7700     3.2020    -2.1510 hc         1 5U3       0.049700
     29 H4          -2.8910     1.7650    -2.6870 hc         1 5U3       0.049700
     30 H5          -0.2930     1.6970    -0.3690 h4         1 5U3       0.198000
     31 H6           5.2860     0.5420    -2.1190 hc         1 5U3       0.048533
     32 H7           6.6000     1.4110    -1.3010 hc         1 5U3       0.048533
     33 H8           6.2620    -0.2670    -0.8740 hc         1 5U3       0.048533
     34 H9          -3.5140     2.7380     2.8860 hc         1 5U3       0.035367
     35 H10         -2.6480     1.3400     2.2390 hc         1 5U3       0.035367
     36 H11         -1.9790     2.9720     2.0220 hc         1 5U3       0.035367
     37 H12         -4.5670     1.8930     0.7780 hc         1 5U3       0.083700
     38 H13         -4.8810     4.0810    -0.2960 hc         1 5U3       0.035367
     39 H14         -4.7490     4.3010     1.4510 hc         1 5U3       0.035367
     40 H15         -3.3640     4.6870     0.4090 hc         1 5U3       0.035367
     41 H16          1.8740     1.7130    -0.2860 ha         1 5U3       0.146000
     42 H17          5.0170    -2.2050    -0.6700 h1         1 5U3       0.057700
     43 H18          5.2710    -1.6880     1.0270 h1         1 5U3       0.057700
     44 H19          4.1350    -3.0060     0.6560 h1         1 5U3       0.057700
     45 H20          6.3140     1.9830     1.2770 hc         1 5U3       0.048533
     46 H21          4.7650     1.6130     2.0640 hc         1 5U3       0.048533
     47 H22          5.8790     0.3060     1.6280 hc         1 5U3       0.048533
     48 H23          3.7840     2.7950     0.2200 ho         1 5U3       0.448000
     49 H24          0.5230    -3.3270     0.3220 hn         1 5U3       0.395000
     50 H25         -4.4980    -2.6860    -0.1620 hn         1 5U3       0.465000
     51 H26         -3.9880    -4.3410    -0.0290 hn         1 5U3       0.465000
     52 C1          -2.9070     2.3870     2.0430 c3         1 5U3      -0.088600
@<TRIPOS>BOND
     1     1     2 1   
     2     1     9 1   
     3     1    11 1   
     4     1    26 1   
     5     2    27 1   
     6     2    28 1   
     7     2    29 1   
     8     3    11 1   
     9     3    12 2   
    10     3    30 1   
    11     4    12 1   
    12     4    13 1   
    13     4    17 2   
    14     5    18 1   
    15     5    31 1   
    16     5    32 1   
    17     5    33 1   
    18     6     8 2   
    19     6    12 1   
    20     6    21 1   
    21     7     8 1   
    22     7    22 2   
    23     7    23 1   
    24     8    24 1   
    25     9    10 1   
    26     9    37 1   
    27     9    52 1   
    28    10    38 1   
    29    10    39 1   
    30    10    40 1   
    31    11    24 1   
    32    13    14 2   
    33    13    41 1   
    34    14    15 1   
    35    14    18 1   
    36    15    16 1   
    37    15    17 1   
    38    16    42 1   
    39    16    43 1   
    40    16    44 1   
    41    18    19 1   
    42    18    20 1   
    43    19    45 1   
    44    19    46 1   
    45    19    47 1   
    46    20    48 1   
    47    21    22 1   
    48    21    49 1   
    49    23    50 1   
    50    23    51 1   
    51    24    25 2   
    52    34    52 1   
    53    35    52 1   
    54    36    52 1   
@<TRIPOS>SUBSTRUCTURE
     1 5U3         1 TEMP              0 ****  ****    0 ROOT
