@<TRIPOS>MOLECULE
5U3
   52    54     1     0     0
SMALL
abcg2


@<TRIPOS>ATOM
      1 C4          -2.8750     2.0760    -0.5290 c3         1 5U3       0.121700
      2 C6          -3.5670     2.1040    -1.8870 c3         1 5U3      -0.103100
      3 C8          -0.8200     0.8000    -0.2430 cc         1 5U3       0.010600
      4 C10          1.4230    -0.2280    -0.0130 cd         1 5U3       0.348800
      5 C17          5.7460     0.6810    -1.1700 c3         1 5U3      -0.105100
      6 C20         -0.7440    -1.5150     0.0820 cd         1 5U3       0.010200
      7 C24         -2.4650    -2.9220     0.2140 cc         1 5U3       0.547900
      8 C26         -2.1320    -1.5500     0.0300 cc         1 5U3      -0.358600
      9 C2          -3.7670     2.4830     0.6560 c3         1 5U3      -0.073700
     10 C3          -4.2820     3.9070     0.4520 c3         1 5U3      -0.088600
     11 N7          -2.1860     0.7850    -0.3050 n          1 5U3      -0.287000
     12 C9          -0.0300    -0.2910    -0.0590 cd         1 5U3      -0.222000
     13 C11          2.2840     0.8810    -0.0960 cd         1 5U3      -0.219000
     14 C12          3.5540     0.3580     0.0110 cc         1 5U3      -0.161300
     15 N13          3.4010    -0.9810     0.1500 na         1 5U3       0.144800
     16 C14          4.3900    -2.0350     0.1760 c3         1 5U3       0.069900
     17 N15          2.1190    -1.3430     0.1290 nc         1 5U3      -0.563800
     18 C16          4.8630     1.1230    -0.0050 c3         1 5U3       0.258300
     19 C18          5.6010     0.9940     1.3300 c3         1 5U3      -0.105100
     20 O19          4.5680     2.4840    -0.2480 oh         1 5U3      -0.649000
     21 N21         -0.3400    -2.7690     0.2770 na         1 5U3       0.011800
     22 N23         -1.3740    -3.6420     0.3580 nd         1 5U3      -0.589800
     23 N25         -3.7220    -3.4540     0.3050 nv         1 5U3      -1.018900
     24 C27         -2.9300    -0.3890    -0.1850 c          1 5U3       0.617600
     25 O28         -4.1560    -0.3910    -0.2630 o          1 5U3      -0.572000
     26 H1          -2.0660     2.8100    -0.5670 h1         1 5U3       0.039700
     27 H2          -4.4710     1.5000    -1.9030 hc         1 5U3       0.049700
     28 H3          -3.8320     3.1270    -2.1490 hc         1 5U3       0.049700
     29 H4          -2.8930     1.7380    -2.6630 hc         1 5U3       0.049700
     30 H5          -0.3760     1.7780    -0.3610 h4         1 5U3       0.198000
     31 H6           5.2140     0.7650    -2.1180 hc         1 5U3       0.048533
     32 H7           6.6360     1.3100    -1.2160 hc         1 5U3       0.048533
     33 H8           6.0800    -0.3490    -1.0600 hc         1 5U3       0.048533
     34 H9          -3.6480     2.7110     2.8030 hc         1 5U3       0.035367
     35 H10         -2.6790     1.3760     2.2020 hc         1 5U3       0.035367
     36 H11         -2.1300     3.0370     1.9740 hc         1 5U3       0.035367
     37 H12         -4.6290     1.8150     0.6940 hc         1 5U3       0.083700
     38 H13         -4.9340     3.9930    -0.4170 hc         1 5U3       0.035367
     39 H14         -4.8590     4.2260     1.3200 hc         1 5U3       0.035367
     40 H15         -3.4580     4.6140     0.3270 hc         1 5U3       0.035367
     41 H16          2.0190     1.9180    -0.2160 ha         1 5U3       0.146000
     42 H17          4.6580    -2.3490    -0.8330 h1         1 5U3       0.057700
     43 H18          5.2860    -1.7160     0.6960 h1         1 5U3       0.057700
     44 H19          3.9710    -2.8820     0.7110 h1         1 5U3       0.057700
     45 H20          6.5050     1.6050     1.3080 hc         1 5U3       0.048533
     46 H21          4.9750     1.3390     2.1550 hc         1 5U3       0.048533
     47 H22          5.9040    -0.0280     1.5540 hc         1 5U3       0.048533
     48 H23          4.1650     2.8610     0.5420 ho         1 5U3       0.448000
     49 H24          0.6140    -3.0820     0.3580 hn         1 5U3       0.395000
     50 H25         -4.4370    -2.9230    -0.1640 hn         1 5U3       0.465000
     51 H26         -3.7840    -4.4420     0.1160 hn         1 5U3       0.465000
     52 C1          -3.0110     2.3890     1.9780 c3         1 5U3      -0.088600
@<TRIPOS>BOND
     1     1     2 1   
     2     1     9 1   
     3     1    11 1   
     4     1    26 1   
     5     2    27 1   
     6     2    28 1   
     7     2    29 1   
     8     3    11 1   
     9     3    12 2   
    10     3    30 1   
    11     4    12 1   
    12     4    13 1   
    13     4    17 2   
    14     5    18 1   
    15     5    31 1   
    16     5    32 1   
    17     5    33 1   
    18     6     8 2   
    19     6    12 1   
    20     6    21 1   
    21     7     8 1   
    22     7    22 2   
    23     7    23 1   
    24     8    24 1   
    25     9    10 1   
    26     9    37 1   
    27     9    52 1   
    28    10    38 1   
    29    10    39 1   
    30    10    40 1   
    31    11    24 1   
    32    13    14 2   
    33    13    41 1   
    34    14    15 1   
    35    14    18 1   
    36    15    16 1   
    37    15    17 1   
    38    16    42 1   
    39    16    43 1   
    40    16    44 1   
    41    18    19 1   
    42    18    20 1   
    43    19    45 1   
    44    19    46 1   
    45    19    47 1   
    46    20    48 1   
    47    21    22 1   
    48    21    49 1   
    49    23    50 1   
    50    23    51 1   
    51    24    25 2   
    52    34    52 1   
    53    35    52 1   
    54    36    52 1   
@<TRIPOS>SUBSTRUCTURE
     1 5U3         1 TEMP              0 ****  ****    0 ROOT
