@<TRIPOS>MOLECULE
5U4
   40    43     1     0     0
SMALL
No Charge or Current Charge


@<TRIPOS>ATOM
      1 C4           4.8060     2.3770    -0.3570 ca         1 5U4      -0.097000
      2 C5           4.0870     2.0570    -1.5190 ca         1 5U4      -0.112000
      3 C6           2.9340     1.2600    -1.4330 ca         1 5U4      -0.093000
      4 C7           2.4950     0.7790    -0.1840 ca         1 5U4       0.018600
      5 C10         -1.1100     0.1940    -0.0850 cc         1 5U4      -0.220000
      6 C13         -3.5910     2.8250    -0.2110 cd         1 5U4      -0.162000
      7 C17         -1.1420    -1.2340     0.0160 cc         1 5U4       0.008200
      8 C21         -0.5030    -3.3180     0.1540 cd         1 5U4       0.548900
      9 C24          1.3110    -1.4450    -0.0250 c          1 5U4       0.620600
     10 C2           3.2150     1.1010     0.9900 ca         1 5U4      -0.048300
     11 C3           4.3710     1.9010     0.8920 ca         1 5U4      -0.110000
     12 N8           1.3150    -0.0320    -0.1260 n          1 5U4      -0.216200
     13 C9           0.1560     0.7660    -0.1520 cd         1 5U4       0.016600
     14 C11         -2.3150     0.9950    -0.1130 cc         1 5U4       0.344800
     15 C12         -2.2990     2.4010    -0.2110 cc         1 5U4      -0.226000
     16 N14         -4.3380     1.6510    -0.1130 na         1 5U4       0.141800
     17 N16         -3.5440     0.5140    -0.0520 nd         1 5U4      -0.565800
     18 N18         -2.2180    -2.1090     0.0990 na         1 5U4       0.015800
     19 N20         -1.8060    -3.4430     0.1840 nc         1 5U4      -0.589800
     20 C23         -0.0380    -2.0100     0.0480 cd         1 5U4      -0.359600
     21 O25          2.3330    -2.1190    -0.0100 o          1 5U4      -0.551000
     22 H1           5.6990     2.9950    -0.4220 ha         1 5U4       0.115000
     23 H2           4.4230     2.4250    -2.4860 ha         1 5U4       0.118000
     24 H3           2.3810     1.0110    -2.3360 ha         1 5U4       0.124000
     25 H4          -4.0290     3.8160    -0.2700 h4         1 5U4       0.155000
     26 H5          -6.1110     1.0710     0.8650 h1         1 5U4       0.058367
     27 H6          -6.2460     2.5510    -0.1310 h1         1 5U4       0.058367
     28 H7          -6.1520     0.9490    -0.9200 h1         1 5U4       0.058367
     29 H8           2.8660    -0.4870     2.4330 hc         1 5U4       0.051033
     30 H9           3.3390     1.0480     3.1710 hc         1 5U4       0.051033
     31 H10          1.7040     0.8470     2.5360 hc         1 5U4       0.051033
     32 H11          4.9370     2.1570     1.7860 ha         1 5U4       0.116000
     33 H12          0.3600     1.8290    -0.2250 h4         1 5U4       0.205000
     34 H13         -1.4220     3.0340    -0.2760 ha         1 5U4       0.146000
     35 H14         -3.1990    -1.8320     0.0990 hn         1 5U4       0.396000
     36 H15          1.2520    -4.2860    -0.0270 hn         1 5U4       0.465500
     37 H16         -0.1570    -5.2980     0.0170 hn         1 5U4       0.465500
     38 C1           2.7570     0.6010     2.3570 c3         1 5U4      -0.052800
     39 N22          0.2730    -4.4030     0.2160 nv         1 5U4      -1.019900
     40 C15         -5.8040     1.5500    -0.0720 c3         1 5U4       0.071900
@<TRIPOS>BOND
     1     1     2 ar  
     2     1    11 ar  
     3     1    22 1   
     4     2     3 ar  
     5     2    23 1   
     6     3     4 ar  
     7     3    24 1   
     8     4    10 ar  
     9     4    12 1   
    10     5     7 1   
    11     5    13 2   
    12     5    14 1   
    13     6    15 2   
    14     6    16 1   
    15     6    25 1   
    16     7    18 1   
    17     7    20 2   
    18     8    19 2   
    19     8    20 1   
    20     8    39 1   
    21     9    12 1   
    22     9    20 1   
    23     9    21 2   
    24    10    11 ar  
    25    10    38 1   
    26    11    32 1   
    27    12    13 1   
    28    13    33 1   
    29    14    15 1   
    30    14    17 2   
    31    15    34 1   
    32    16    17 1   
    33    16    40 1   
    34    18    19 1   
    35    18    35 1   
    36    26    40 1   
    37    27    40 1   
    38    28    40 1   
    39    29    38 1   
    40    30    38 1   
    41    31    38 1   
    42    36    39 1   
    43    37    39 1   
@<TRIPOS>SUBSTRUCTURE
     1 5U4         1 TEMP              0 ****  ****    0 ROOT
