@<TRIPOS>MOLECULE
5U4
   40    43     1     0     0
SMALL
abcg2


@<TRIPOS>ATOM
      1 C4           4.9510     2.1290    -0.3300 ca         1 5U4      -0.097000
      2 C5           4.2630     1.8290    -1.4960 ca         1 5U4      -0.112000
      3 C6           3.0550     1.1510    -1.4200 ca         1 5U4      -0.093000
      4 C7           2.5480     0.7810    -0.1840 ca         1 5U4       0.018600
      5 C10         -1.1060     0.3440    -0.0910 cc         1 5U4      -0.220000
      6 C13         -3.7930     2.7810    -0.2170 cd         1 5U4      -0.162000
      7 C17         -1.1550    -1.0790    -0.0040 cc         1 5U4       0.008200
      8 C21         -0.4690    -3.1970     0.1040 cd         1 5U4       0.548900
      9 C24          1.3060    -1.2940    -0.0550 c          1 5U4       0.620600
     10 C2           3.2220     1.0700     1.0020 ca         1 5U4      -0.048300
     11 C3           4.4320     1.7520     0.9020 ca         1 5U4      -0.110000
     12 N8           1.2900     0.1020    -0.1290 n          1 5U4      -0.216200
     13 C9           0.1480     0.8590    -0.1470 cd         1 5U4       0.016600
     14 C11         -2.3060     1.1680    -0.1180 cc         1 5U4       0.344800
     15 C12         -2.4360     2.5640    -0.2490 cc         1 5U4      -0.226000
     16 N14         -4.3820     1.5810    -0.0800 na         1 5U4       0.141800
     17 N16         -3.4980     0.5950    -0.0160 nd         1 5U4      -0.565800
     18 N18         -2.1780    -1.9260     0.0660 na         1 5U4       0.015800
     19 N20         -1.7840    -3.2200     0.1300 nc         1 5U4      -0.589800
     20 C23          0.0010    -1.8570     0.0160 cd         1 5U4      -0.359600
     21 O25          2.3650    -1.9080    -0.0590 o          1 5U4      -0.551000
     22 H1           5.8930     2.6600    -0.3760 ha         1 5U4       0.115000
     23 H2           4.6610     2.1160    -2.4600 ha         1 5U4       0.118000
     24 H3           2.5030     0.9070    -2.3190 ha         1 5U4       0.124000
     25 H4          -4.3670     3.6910    -0.2870 h4         1 5U4       0.155000
     26 H5          -6.0320     0.9320     1.0280 h1         1 5U4       0.058367
     27 H6          -6.3500     2.2130    -0.1530 h1         1 5U4       0.058367
     28 H7          -6.0840     0.5530    -0.7040 h1         1 5U4       0.058367
     29 H8           2.6750    -0.4250     2.4470 hc         1 5U4       0.051033
     30 H9           3.2710     1.0760     3.1430 hc         1 5U4       0.051033
     31 H10          1.6440     0.9970     2.4760 hc         1 5U4       0.051033
     32 H11          4.9760     1.9920     1.8080 ha         1 5U4       0.116000
     33 H12          0.3180     1.9250    -0.2080 h4         1 5U4       0.205000
     34 H13         -1.6650     3.3080    -0.3560 ha         1 5U4       0.146000
     35 H14         -3.1560    -1.6790     0.0750 hn         1 5U4       0.396000
     36 H15          1.2220    -4.2490    -0.1670 hn         1 5U4       0.465500
     37 H16         -0.1660    -5.1830    -0.0500 hn         1 5U4       0.465500
     38 C1           2.6720     0.6600     2.3350 c3         1 5U4      -0.052800
     39 N22          0.2940    -4.3260     0.2160 nv         1 5U4      -1.019900
     40 C15         -5.7930     1.2990     0.0320 c3         1 5U4       0.071900
@<TRIPOS>BOND
     1     1     2 ar  
     2     1    11 ar  
     3     1    22 1   
     4     2     3 ar  
     5     2    23 1   
     6     3     4 ar  
     7     3    24 1   
     8     4    10 ar  
     9     4    12 1   
    10     5     7 1   
    11     5    13 2   
    12     5    14 1   
    13     6    15 2   
    14     6    16 1   
    15     6    25 1   
    16     7    18 1   
    17     7    20 2   
    18     8    19 2   
    19     8    20 1   
    20     8    39 1   
    21     9    12 1   
    22     9    20 1   
    23     9    21 2   
    24    10    11 ar  
    25    10    38 1   
    26    11    32 1   
    27    12    13 1   
    28    13    33 1   
    29    14    15 1   
    30    14    17 2   
    31    15    34 1   
    32    16    17 1   
    33    16    40 1   
    34    18    19 1   
    35    18    35 1   
    36    26    40 1   
    37    27    40 1   
    38    28    40 1   
    39    29    38 1   
    40    30    38 1   
    41    31    38 1   
    42    36    39 1   
    43    37    39 1   
@<TRIPOS>SUBSTRUCTURE
     1 5U4         1 TEMP              0 ****  ****    0 ROOT
