@<TRIPOS>MOLECULE
5U5
   63    66     1     0     0
SMALL
No Charge or Current Charge


@<TRIPOS>ATOM
      1 C4          -2.0500     1.2230    -0.0810 ca         1 5U5      -0.090000
      2 C5          -1.3240     0.0340    -0.2660 ca         1 5U5      -0.023800
      3 C6          -1.9730    -1.1860    -0.1900 ca         1 5U5       0.031600
      4 C8           0.1620    -1.6740    -0.9510 c          1 5U5       0.580200
      5 N12          2.2370     0.2130    -1.3650 nu         1 5U5      -0.812000
      6 C13          1.2460     2.0470    -0.1550 ca         1 5U5      -0.102800
      7 C15          2.2560     4.2830    -0.1290 ca         1 5U5      -0.114500
      8 C17          0.8020     3.5980     1.6910 ca         1 5U5      -0.114500
      9 C20          3.9310     0.4600     0.4000 ca         1 5U5      -0.129000
     10 C21          5.2600     0.2970     0.8290 ca         1 5U5      -0.080500
     11 C22          6.2230    -0.2560    -0.0340 ca         1 5U5      -0.091300
     12 C24          4.5100    -0.4870    -1.7560 ca         1 5U5      -0.129000
     13 C26         -6.6090    -0.2720     1.0530 cg         1 5U5      -0.187200
     14 C27         -8.0270    -0.3990     1.3240 c          1 5U5       0.639300
     15 N29         -8.7390    -1.0780     0.3680 ns         1 5U5      -0.502900
     16 C35        -10.1780    -1.3260     0.4300 c3         1 5U5       0.108000
     17 C34        -10.6670    -2.1170    -0.7940 c3         1 5U5      -0.112100
     18 C2          -4.0460    -0.1310     0.4110 ca         1 5U5       0.015000
     19 C3          -3.3220    -1.3140     0.1540 ca         1 5U5      -0.113000
     20 N7          -1.0640    -2.1550    -0.5910 ns         1 5U5      -0.388100
     21 O10          1.0890    -2.3360    -1.3920 o          1 5U5      -0.599000
     22 C9           0.0640    -0.2070    -0.6950 cc         1 5U5      -0.319400
     23 C1          -3.4120     1.1300     0.2800 ca         1 5U5      -0.097000
     24 C11          1.0830     0.7090    -0.7870 cf         1 5U5       0.335800
     25 C18          0.6250     2.3450     1.0780 ca         1 5U5      -0.078500
     26 C16          1.6130     4.5700     1.0850 ca         1 5U5      -0.093000
     27 C14          2.0800     3.0300    -0.7410 ca         1 5U5      -0.078500
     28 C19          3.5480     0.0760    -0.9000 ca         1 5U5       0.273000
     29 C23          5.8410    -0.6500    -1.3300 ca         1 5U5      -0.080500
     30 N31          7.8220    -1.4620     1.4930 n3         1 5U5      -0.715600
     31 C33          7.3970    -2.8130     1.0580 c3         1 5U5       0.149100
     32 C32          9.1810    -1.4630     2.0790 c3         1 5U5       0.149100
     33 H1          -1.5940     2.1970    -0.2300 ha         1 5U5       0.124000
     34 H2           2.8920     5.0300    -0.5970 ha         1 5U5       0.119500
     35 H3           0.3160     3.8110     2.6410 ha         1 5U5       0.119500
     36 H4           3.2040     0.8720     1.0910 ha         1 5U5       0.125000
     37 H5           5.5410     0.5950     1.8370 ha         1 5U5       0.123500
     38 H6           4.2310    -0.7930    -2.7600 ha         1 5U5       0.125000
     39 H7          -8.2140    -1.4210    -0.4270 hn         1 5U5       0.320500
     40 H8         -10.4030    -1.8900     1.3450 h1         1 5U5       0.052200
     41 H9         -10.7040    -0.3630     0.4790 h1         1 5U5       0.052200
     42 H10        -10.4660    -1.5640    -1.7190 hc         1 5U5       0.042700
     43 H11        -10.1650    -3.0900    -0.8520 hc         1 5U5       0.042700
     44 H12        -11.7470    -2.2920    -0.7250 hc         1 5U5       0.042700
     45 H13         -3.7970    -2.2910     0.2010 ha         1 5U5       0.121000
     46 H14         -1.3030    -3.1340    -0.6870 hn         1 5U5       0.337500
     47 H16         -3.9830     2.0420     0.4430 ha         1 5U5       0.124000
     48 H17          0.0250     1.5930     1.5850 ha         1 5U5       0.126000
     49 H18          1.7510     5.5390     1.5600 ha         1 5U5       0.117000
     50 H19          2.5840     2.8270    -1.6830 ha         1 5U5       0.126000
     51 H20          6.5730    -1.0850    -2.0080 ha         1 5U5       0.123500
     52 H21          8.3000    -0.6770    -0.4250 h1         1 5U5       0.039200
     53 H22          8.0120     0.5410     0.8160 h1         1 5U5       0.039200
     54 H24          8.0120    -3.1660     0.2180 h1         1 5U5       0.032533
     55 H25          7.4950    -3.5340     1.8810 h1         1 5U5       0.032533
     56 H26          6.3470    -2.8140     0.7390 h1         1 5U5       0.032533
     57 H27          9.4370    -0.4690     2.4700 h1         1 5U5       0.032533
     58 H28          9.2450    -2.1780     2.9100 h1         1 5U5       0.032533
     59 H29          9.9320    -1.7420     1.3270 h1         1 5U5       0.032533
     60 H30          1.9990    -0.5580    -1.9910 hn         1 5U5       0.542000
     61 C25         -5.4250    -0.2030     0.7640 ch         1 5U5      -0.034000
     62 C30          7.6650    -0.4310     0.4370 c3         1 5U5       0.211100
     63 O28         -8.5380     0.0680     2.3330 o          1 5U5      -0.589100
@<TRIPOS>BOND
     1     1     2 ar  
     2     1    23 ar  
     3     1    33 1   
     4     2     3 ar  
     5     2    22 1   
     6     3    19 ar  
     7     3    20 1   
     8     4    20 1   
     9     4    21 2   
    10     4    22 1   
    11     5    24 1   
    12     5    28 1   
    13     5    60 1   
    14     6    24 1   
    15     6    25 ar  
    16     6    27 ar  
    17     7    26 ar  
    18     7    27 ar  
    19     7    34 1   
    20     8    25 ar  
    21     8    26 ar  
    22     8    35 1   
    23     9    10 ar  
    24     9    28 ar  
    25     9    36 1   
    26    10    11 ar  
    27    10    37 1   
    28    11    29 ar  
    29    11    62 1   
    30    12    28 ar  
    31    12    29 ar  
    32    12    38 1   
    33    13    14 1   
    34    13    61 3   
    35    14    15 1   
    36    14    63 2   
    37    15    16 1   
    38    15    39 1   
    39    16    17 1   
    40    16    40 1   
    41    16    41 1   
    42    17    42 1   
    43    17    43 1   
    44    17    44 1   
    45    18    19 ar  
    46    18    23 ar  
    47    18    61 1   
    48    19    45 1   
    49    20    46 1   
    50    22    24 2   
    51    23    47 1   
    52    25    48 1   
    53    26    49 1   
    54    27    50 1   
    55    29    51 1   
    56    30    31 1   
    57    30    32 1   
    58    30    62 1   
    59    31    54 1   
    60    31    55 1   
    61    31    56 1   
    62    32    57 1   
    63    32    58 1   
    64    32    59 1   
    65    52    62 1   
    66    53    62 1   
@<TRIPOS>SUBSTRUCTURE
     1 5U5         1 TEMP              0 ****  ****    0 ROOT
