@<TRIPOS>MOLECULE
5U5
   63    66     1     0     0
SMALL
bcc


@<TRIPOS>ATOM
      1 C4          -1.9350     0.8290     0.1900 ca         1 5U5      -0.108000
      2 C5          -1.4340    -0.3970    -0.2380 ca         1 5U5      -0.023800
      3 C6          -2.3550    -1.4080    -0.5920 ca         1 5U5       0.031600
      4 C8          -0.3070    -2.2860    -1.0240 c          1 5U5       0.722700
      5 N12          2.2360    -1.0300    -0.6940 nu         1 5U5      -0.618400
      6 C13          1.2890     0.9260     0.3740 ca         1 5U5      -0.102800
      7 C15          1.9090     3.2450     0.2500 ca         1 5U5      -0.132500
      8 C17          1.0770     2.3310     2.3140 ca         1 5U5      -0.132500
      9 C20          4.0650    -0.2500     0.7530 ca         1 5U5      -0.147000
     10 C21          5.4110     0.0330     0.9070 ca         1 5U5      -0.098500
     11 C22          6.3120    -0.1380    -0.1420 ca         1 5U5      -0.091300
     12 C24          4.4750    -0.8750    -1.5300 ca         1 5U5      -0.147000
     13 C26         -6.7870     0.3710     0.2000 cg         1 5U5      -0.187200
     14 C27         -8.2040     0.6280     0.3540 c          1 5U5       0.706300
     15 N29         -8.9940    -0.3990     0.0180 ns         1 5U5      -0.569900
     16 C35        -10.4400    -0.3430     0.1230 c3         1 5U5       0.108000
     17 C34        -11.0530    -1.6370    -0.3760 c3         1 5U5      -0.112100
     18 C2          -4.1990    -0.0110    -0.0390 ca         1 5U5       0.015000
     19 C3          -3.7170    -1.2450    -0.4960 ca         1 5U5      -0.131000
     20 N7          -1.6550    -2.5110    -1.0370 ns         1 5U5      -0.455100
     21 O10          0.5430    -3.0880    -1.4100 o          1 5U5      -0.674500
     22 C9          -0.1160    -0.9450    -0.4760 cc         1 5U5      -0.319400
     23 C1          -3.3050     1.0150     0.2900 ca         1 5U5      -0.115000
     24 C11          1.1360    -0.3940    -0.2750 cf         1 5U5       0.335800
     25 C18          0.9340     1.0920     1.7090 ca         1 5U5      -0.096500
     26 C16          1.5610     3.4090     1.5840 ca         1 5U5      -0.111000
     27 C14          1.7820     2.0030    -0.3550 ca         1 5U5      -0.096500
     28 C19          3.5850    -0.6920    -0.4790 ca         1 5U5       0.134600
     29 C23          5.8250    -0.6070    -1.3560 ca         1 5U5      -0.098500
     30 N31          8.3210    -0.3640     1.2550 n3         1 5U5      -0.715600
     31 C33          8.3680    -1.8100     1.2120 c3         1 5U5       0.149100
     32 C32          9.6240     0.1930     1.5450 c3         1 5U5       0.149100
     33 H1          -1.2770     1.6470     0.4440 ha         1 5U5       0.142000
     34 H2           2.2820     4.0850    -0.3220 ha         1 5U5       0.137500
     35 H3           0.8070     2.4570     3.3540 ha         1 5U5       0.137500
     36 H4           3.4000    -0.1440     1.5980 ha         1 5U5       0.143000
     37 H5           5.7730     0.3700     1.8700 ha         1 5U5       0.141500
     38 H6           4.1120    -1.2300    -2.4870 ha         1 5U5       0.143000
     39 H7          -8.5660    -1.2530    -0.3010 hn         1 5U5       0.320500
     40 H8         -10.7290    -0.1660     1.1610 h1         1 5U5       0.052200
     41 H9         -10.8170     0.5000    -0.4600 h1         1 5U5       0.052200
     42 H10        -10.8150    -1.8120    -1.4250 hc         1 5U5       0.042700
     43 H11        -10.7030    -2.4930     0.2040 hc         1 5U5       0.042700
     44 H12        -12.1360    -1.5940    -0.2820 hc         1 5U5       0.042700
     45 H13         -4.4010    -2.0390    -0.7670 ha         1 5U5       0.139000
     46 H14         -2.0760    -3.3590    -1.3820 hn         1 5U5       0.337500
     47 H16         -3.6900     1.9670     0.6280 ha         1 5U5       0.142000
     48 H17          0.5480     0.2520     2.2730 ha         1 5U5       0.144000
     49 H18          1.6660     4.3780     2.0540 ha         1 5U5       0.135000
     50 H19          2.0580     1.8750    -1.3940 ha         1 5U5       0.144000
     51 H20          6.5060    -0.7650    -2.1830 ha         1 5U5       0.141500
     52 H21          8.3280    -0.1380    -0.8590 h1         1 5U5       0.039200
     53 H22          7.8830     1.2790     0.0810 h1         1 5U5       0.039200
     54 H24          9.0280    -2.1950     0.4180 h1         1 5U5       0.032533
     55 H25          8.7260    -2.2020     2.1640 h1         1 5U5       0.032533
     56 H26          7.3710    -2.2190     1.0400 h1         1 5U5       0.032533
     57 H27          9.5560     1.2780     1.6380 h1         1 5U5       0.032533
     58 H28          9.9950    -0.2000     2.4920 h1         1 5U5       0.032533
     59 H29         10.3770    -0.0300     0.7730 h1         1 5U5       0.032533
     60 H30          2.0630    -1.8810    -1.2240 hn         1 5U5       0.486800
     61 C25         -5.5980     0.1990     0.0860 ch         1 5U5      -0.034000
     62 C30          7.7710     0.1910     0.0360 c3         1 5U5       0.211100
     63 O28         -8.6170     1.7060     0.7630 o          1 5U5      -0.589100
@<TRIPOS>BOND
     1     1     2 ar  
     2     1    23 ar  
     3     1    33 1   
     4     2     3 ar  
     5     2    22 1   
     6     3    19 ar  
     7     3    20 1   
     8     4    20 1   
     9     4    21 2   
    10     4    22 1   
    11     5    24 1   
    12     5    28 1   
    13     5    60 1   
    14     6    24 1   
    15     6    25 ar  
    16     6    27 ar  
    17     7    26 ar  
    18     7    27 ar  
    19     7    34 1   
    20     8    25 ar  
    21     8    26 ar  
    22     8    35 1   
    23     9    10 ar  
    24     9    28 ar  
    25     9    36 1   
    26    10    11 ar  
    27    10    37 1   
    28    11    29 ar  
    29    11    62 1   
    30    12    28 ar  
    31    12    29 ar  
    32    12    38 1   
    33    13    14 1   
    34    13    61 3   
    35    14    15 1   
    36    14    63 2   
    37    15    16 1   
    38    15    39 1   
    39    16    17 1   
    40    16    40 1   
    41    16    41 1   
    42    17    42 1   
    43    17    43 1   
    44    17    44 1   
    45    18    19 ar  
    46    18    23 ar  
    47    18    61 1   
    48    19    45 1   
    49    20    46 1   
    50    22    24 2   
    51    23    47 1   
    52    25    48 1   
    53    26    49 1   
    54    27    50 1   
    55    29    51 1   
    56    30    31 1   
    57    30    32 1   
    58    30    62 1   
    59    31    54 1   
    60    31    55 1   
    61    31    56 1   
    62    32    57 1   
    63    32    58 1   
    64    32    59 1   
    65    52    62 1   
    66    53    62 1   
@<TRIPOS>SUBSTRUCTURE
     1 5U5         1 TEMP              0 ****  ****    0 ROOT
