@<TRIPOS>MOLECULE
5U6
   49    51     1     0     0
SMALL
No Charge or Current Charge


@<TRIPOS>ATOM
      1 N3          -3.7060     1.9090     2.5380 nb         1 5U6      -0.683000
      2 C4          -4.2860     1.2130     1.5320 ca         1 5U6       0.399900
      3 C5          -2.1490     0.4920     0.6510 ca         1 5U6       0.070200
      4 C6          -3.5490     0.5000     0.5740 ca         1 5U6      -0.232600
      5 C7          -4.2460    -0.2340    -0.5190 c          1 5U6       0.574600
      6 C10         -1.3650    -0.2440    -0.3380 cc         1 5U6      -0.097400
      7 C13          2.1780    -1.1270     0.6690 ca         1 5U6      -0.150000
      8 C17          0.7700    -1.0360     0.7010 ca         1 5U6       0.114100
      9 C20          2.2350     0.1150    -1.4300 ca         1 5U6       0.101100
     10 C21          2.9140    -0.5560    -0.3880 ca         1 5U6      -0.069300
     11 C24          6.5280    -0.2280     0.8540 c3         1 5U6       0.150100
     12 C26          0.6240    -2.2880     2.8320 c3         1 5U6       0.145900
     13 C18          0.0930    -0.3620    -0.3380 ca         1 5U6      -0.041800
     14 C1          -1.5470     1.2240     1.6890 ca         1 5U6      -0.164000
     15 N8          -3.4280    -0.9110    -1.4520 n          1 5U6      -0.287000
     16 C2          -2.3560     1.9100     2.6050 ca         1 5U6       0.353900
     17 C16          4.8310     1.5380     0.6520 c3         1 5U6       0.150100
     18 C9          -2.0340    -0.9080    -1.3480 cd         1 5U6      -0.018400
     19 C12         -4.0880    -1.6470    -2.5550 c3         1 5U6       0.082300
     20 C19          0.8260     0.2040    -1.3980 ca         1 5U6      -0.154000
     21 C14          4.4410    -0.6800    -0.3730 c3         1 5U6       0.214100
     22 O22          2.9740     0.6710    -2.4590 os         1 5U6      -0.347100
     23 N15          5.0870     0.0810     0.7280 n3         1 5U6      -0.722600
     24 O11         -5.4680    -0.2440    -0.6010 o          1 5U6      -0.548000
     25 C23          2.3680     1.3840    -3.5530 c3         1 5U6       0.149900
     26 H1          -5.3750     1.2380     1.5020 h4         1 5U6       0.039100
     27 H2           2.7230    -1.6360     1.4590 ha         1 5U6       0.143000
     28 H3           6.9620     0.2870     1.7210 h1         1 5U6       0.031700
     29 H4           6.6840    -1.3070     0.9900 h1         1 5U6       0.031700
     30 H5           7.0770     0.0880    -0.0440 h1         1 5U6       0.031700
     31 H6           1.2010    -3.1560     2.4880 h1         1 5U6       0.041033
     32 H7           1.2910    -1.6180     3.3900 h1         1 5U6       0.041033
     33 H8          -0.1510    -2.6460     3.5200 h1         1 5U6       0.041033
     34 H9          -0.4680     1.2670     1.7940 ha         1 5U6       0.132000
     35 H10         -1.9110     2.4800     3.4190 h4         1 5U6       0.017100
     36 H11          3.7540     1.7520     0.6770 h1         1 5U6       0.031700
     37 H12          5.2930     2.0580     1.5010 h1         1 5U6       0.031700
     38 H13          5.2430     1.9600    -0.2750 h1         1 5U6       0.031700
     39 H14         -1.5300    -1.4830    -2.1190 h4         1 5U6       0.201000
     40 H15         -4.7300    -2.4350    -2.1420 h1         1 5U6       0.053033
     41 H16         -4.7030    -0.9560    -3.1450 h1         1 5U6       0.053033
     42 H17         -3.3450    -2.1090    -3.2170 h1         1 5U6       0.053033
     43 H18          0.2810     0.7190    -2.1830 ha         1 5U6       0.121000
     44 H19          4.6800    -1.7470    -0.2710 h1         1 5U6       0.049700
     45 H20          4.8580    -0.3670    -1.3400 h1         1 5U6       0.049700
     46 H22          3.1390     1.7400    -4.2470 h1         1 5U6       0.039367
     47 H23          1.6830     0.7330    -4.1100 h1         1 5U6       0.039367
     48 H24          1.8110     2.2560    -3.1880 h1         1 5U6       0.039367
     49 O25          0.0230    -1.6010     1.7210 os         1 5U6      -0.335100
@<TRIPOS>BOND
     1     1     2 ar  
     2     1    16 ar  
     3     2     4 ar  
     4     2    26 1   
     5     3     4 ar  
     6     3     6 1   
     7     3    14 ar  
     8     4     5 1   
     9     5    15 1   
    10     5    24 2   
    11     6    13 1   
    12     6    18 2   
    13     7     8 ar  
    14     7    10 ar  
    15     7    27 1   
    16     8    13 ar  
    17     8    49 1   
    18     9    10 ar  
    19     9    20 ar  
    20     9    22 1   
    21    10    21 1   
    22    11    23 1   
    23    11    28 1   
    24    11    29 1   
    25    11    30 1   
    26    12    31 1   
    27    12    32 1   
    28    12    33 1   
    29    12    49 1   
    30    13    20 ar  
    31    14    16 ar  
    32    14    34 1   
    33    15    18 1   
    34    15    19 1   
    35    16    35 1   
    36    17    23 1   
    37    17    36 1   
    38    17    37 1   
    39    17    38 1   
    40    18    39 1   
    41    19    40 1   
    42    19    41 1   
    43    19    42 1   
    44    20    43 1   
    45    21    23 1   
    46    21    44 1   
    47    21    45 1   
    48    22    25 1   
    49    25    46 1   
    50    25    47 1   
    51    25    48 1   
@<TRIPOS>SUBSTRUCTURE
     1 5U6         1 TEMP              0 ****  ****    0 ROOT
