@<TRIPOS>MOLECULE
5U6
   49    51     1     0     0
SMALL
abcg2


@<TRIPOS>ATOM
      1 N3          -3.6850     1.9820     2.3270 nb         1 5U6      -0.683000
      2 C4          -4.2410     1.2000     1.4270 ca         1 5U6       0.399900
      3 C5          -2.1140     0.4930     0.5370 ca         1 5U6       0.070200
      4 C6          -3.5150     0.4370     0.5070 ca         1 5U6      -0.232600
      5 C7          -4.2300    -0.3810    -0.4690 c          1 5U6       0.574600
      6 C10         -1.3670    -0.2860    -0.4080 cc         1 5U6      -0.097400
      7 C13          2.2370    -0.7810     0.5640 ca         1 5U6      -0.150000
      8 C17          0.8490    -0.8200     0.6110 ca         1 5U6       0.114100
      9 C20          2.1750     0.2850    -1.5850 ca         1 5U6       0.101100
     10 C21          2.9150    -0.2250    -0.5140 ca         1 5U6      -0.069300
     11 C24          6.3980    -0.6650     0.7360 c3         1 5U6       0.150100
     12 C26          0.8360    -1.8500     2.7500 c3         1 5U6       0.145900
     13 C18          0.1100    -0.2760    -0.4410 ca         1 5U6      -0.041800
     14 C1          -1.5310     1.3380     1.4930 ca         1 5U6      -0.164000
     15 N8          -3.4290    -1.0750    -1.3470 n          1 5U6      -0.287000
     16 C2          -2.3460     2.0450     2.3440 ca         1 5U6       0.353900
     17 C16          4.8680     1.0120     1.4700 c3         1 5U6       0.150100
     18 C9          -2.0650    -1.0200    -1.3030 cd         1 5U6      -0.018400
     19 C12         -4.0890    -1.8990    -2.3510 c3         1 5U6       0.082300
     20 C19          0.7840     0.2660    -1.5310 ca         1 5U6      -0.154000
     21 C14          4.4250    -0.2160    -0.5400 c3         1 5U6       0.214100
     22 O22          2.8780     0.7800    -2.6290 os         1 5U6      -0.347100
     23 N15          5.0110    -0.2550     0.7840 n3         1 5U6      -0.722600
     24 O11         -5.4480    -0.4630    -0.5330 o          1 5U6      -0.548000
     25 C23          2.1740     1.3510    -3.7110 c3         1 5U6       0.149900
     26 H1          -5.3250     1.1610     1.4150 h4         1 5U6       0.039100
     27 H2           2.8350    -1.1830     1.3720 ha         1 5U6       0.143000
     28 H3           6.8000    -0.7290     1.7480 h1         1 5U6       0.031700
     29 H4           6.4820    -1.6530     0.2810 h1         1 5U6       0.031700
     30 H5           7.0400     0.0240     0.1660 h1         1 5U6       0.031700
     31 H6           1.4990    -2.6820     2.4970 h1         1 5U6       0.041033
     32 H7           1.4250    -1.0680     3.2360 h1         1 5U6       0.041033
     33 H8           0.0830    -2.2050     3.4490 h1         1 5U6       0.041033
     34 H9          -0.4580     1.4520     1.5590 ha         1 5U6       0.132000
     35 H10         -1.9080     2.7020     3.0870 h4         1 5U6       0.017100
     36 H11          3.8160     1.2880     1.5500 h1         1 5U6       0.031700
     37 H12          5.2670     0.9350     2.4820 h1         1 5U6       0.031700
     38 H13          5.3920     1.8360     0.9600 h1         1 5U6       0.031700
     39 H14         -1.5560    -1.6210    -2.0430 h4         1 5U6       0.201000
     40 H15         -4.7260    -2.6430    -1.8780 h1         1 5U6       0.053033
     41 H16         -4.6960    -1.2850    -3.0140 h1         1 5U6       0.053033
     42 H17         -3.3340    -2.4090    -2.9410 h1         1 5U6       0.053033
     43 H18          0.1930     0.6880    -2.3330 ha         1 5U6       0.121000
     44 H19          4.7660    -1.1010    -1.0880 h1         1 5U6       0.049700
     45 H20          4.7880     0.6500    -1.1130 h1         1 5U6       0.049700
     46 H22          2.9220     1.6850    -4.4250 h1         1 5U6       0.039367
     47 H23          1.5190     0.6250    -4.2030 h1         1 5U6       0.039367
     48 H24          1.5730     2.2120    -3.4030 h1         1 5U6       0.039367
     49 O25          0.1390    -1.3640     1.6230 os         1 5U6      -0.335100
@<TRIPOS>BOND
     1     1     2 ar  
     2     1    16 ar  
     3     2     4 ar  
     4     2    26 1   
     5     3     4 ar  
     6     3     6 1   
     7     3    14 ar  
     8     4     5 1   
     9     5    15 1   
    10     5    24 2   
    11     6    13 1   
    12     6    18 2   
    13     7     8 ar  
    14     7    10 ar  
    15     7    27 1   
    16     8    13 ar  
    17     8    49 1   
    18     9    10 ar  
    19     9    20 ar  
    20     9    22 1   
    21    10    21 1   
    22    11    23 1   
    23    11    28 1   
    24    11    29 1   
    25    11    30 1   
    26    12    31 1   
    27    12    32 1   
    28    12    33 1   
    29    12    49 1   
    30    13    20 ar  
    31    14    16 ar  
    32    14    34 1   
    33    15    18 1   
    34    15    19 1   
    35    16    35 1   
    36    17    23 1   
    37    17    36 1   
    38    17    37 1   
    39    17    38 1   
    40    18    39 1   
    41    19    40 1   
    42    19    41 1   
    43    19    42 1   
    44    20    43 1   
    45    21    23 1   
    46    21    44 1   
    47    21    45 1   
    48    22    25 1   
    49    25    46 1   
    50    25    47 1   
    51    25    48 1   
@<TRIPOS>SUBSTRUCTURE
     1 5U6         1 TEMP              0 ****  ****    0 ROOT
