@<TRIPOS>MOLECULE
5U7
   61    63     1     0     0
SMALL
No Charge or Current Charge


@<TRIPOS>ATOM
      1 C1          -4.3690     1.2340     0.1630 ca         1 5U7      -0.157100
      2 C2          -2.9780     1.0440     0.0200 ca         1 5U7      -0.036500
      3 C3          -0.1480     0.5690    -1.0320 ca         1 5U7      -0.062000
      4 C4          -0.2960    -1.5680     0.1060 ca         1 5U7      -0.068000
      5 C5          -5.2260     0.1130     0.0340 ca         1 5U7      -0.072000
      6 C6           1.2390     0.4000    -1.1730 ca         1 5U7      -0.174000
      7 C7           1.0960    -1.7470    -0.0280 ca         1 5U7      -0.106300
      8 C8          -3.3060    -1.3280    -0.3660 ca         1 5U7      -0.036500
      9 C9          -0.9440    -0.4110    -0.3910 cp         1 5U7      -0.074000
     10 C10         -2.4230    -0.2300    -0.2440 cp         1 5U7      -0.034000
     11 C12          1.8710    -0.7580    -0.6690 ca         1 5U7       0.150100
     12 C14          6.1420    -0.9350    -0.0920 c6         1 5U7       0.142300
     13 C15          6.0920     0.2910     0.8730 c6         1 5U7       0.145300
     14 C16          5.5710    -0.5570    -1.4920 c6         1 5U7       0.123300
     15 C17          4.6390     0.8580     0.9360 c6         1 5U7       0.172300
     16 C18          4.1260     0.0320    -1.3070 c6         1 5U7       0.357300
     17 C19         -7.9480    -3.2730    -0.3560 c3         1 5U7       0.093800
     18 C20          4.5500     2.1590     1.8010 c3         1 5U7       0.169600
     19 O21         -5.1330    -3.5120    -0.6060 o          1 5U7      -0.597100
     20 O22          4.1600     1.1650    -0.4040 os         1 5U7      -0.443000
     21 O23          7.4960    -1.4030    -0.2280 oh         1 5U7      -0.651000
     22 O24          6.5820    -0.0940     2.1740 oh         1 5U7      -0.722000
     23 O25          6.4810     0.3740    -2.1370 oh         1 5U7      -0.689000
     24 O26          3.2280     2.7370     1.8410 oh         1 5U7      -0.710000
     25 O27          3.2320    -0.9760    -0.7890 os         1 5U7      -0.386100
     26 O3          -4.1490     3.5950     0.5560 o          1 5U7      -0.597100
     27 C02         -4.8930     2.6290     0.4500 c          1 5U7       0.610200
     28 N1          -6.2570     2.7700     0.5880 ns         1 5U7      -0.504900
     29 C21         -6.9330     4.0400     0.8660 c3         1 5U7       0.093800
     30 C01         -4.7030    -1.1770    -0.2310 ca         1 5U7      -0.157100
     31 N           -6.9480    -2.2080    -0.2450 ns         1 5U7      -0.504900
     32 H17         -2.3090     1.8940     0.1310 ha         1 5U7       0.141500
     33 H12         -0.6120     1.4640    -1.4390 ha         1 5U7       0.121000
     34 H13         -0.8810    -2.3290     0.6160 ha         1 5U7       0.115000
     35 H18         -6.2970     0.2440     0.1410 ha         1 5U7       0.109000
     36 H11          1.8030     1.1800    -1.6750 ha         1 5U7       0.136000
     37 H19         -2.8940    -2.3100    -0.5840 ha         1 5U7       0.141500
     38 H16          2.5140    -2.7520     1.2770 hc         1 5U7       0.041700
     39 H15          1.0270    -3.6710     1.0080 hc         1 5U7       0.041700
     40 H14          2.2460    -3.5760    -0.2690 hc         1 5U7       0.041700
     41 H2           5.5150    -1.7340     0.3320 h1         1 5U7       0.060700
     42 H1           6.7360     1.0800     0.4560 h1         1 5U7       0.070700
     43 H3           5.4880    -1.4750    -2.0930 h1         1 5U7       0.050700
     44 H            3.9760     0.1080     1.3910 h1         1 5U7       0.071700
     45 H4           3.7620     0.3600    -2.2910 h2         1 5U7       0.078700
     46 H22         -7.8910    -3.7310    -1.3520 h1         1 5U7       0.041533
     47 H20         -7.7600    -4.0380     0.4090 h1         1 5U7       0.041533
     48 H21         -8.9510    -2.8530    -0.2080 h1         1 5U7       0.041533
     49 H26          4.8790     1.9170     2.8200 h1         1 5U7       0.036200
     50 H27          5.2650     2.8870     1.3940 h1         1 5U7       0.036200
     51 H8           7.8540    -0.8930    -0.9930 ho         1 5U7       0.448000
     52 H9           7.3390    -0.7030     1.9940 ho         1 5U7       0.523000
     53 H7           6.1380     0.5470    -3.0460 ho         1 5U7       0.505000
     54 H10          3.2960     3.5780     2.3500 ho         1 5U7       0.503000
     55 H6          -6.8200     1.9350     0.4900 hn         1 5U7       0.313000
     56 H23         -6.7210     4.7550     0.0600 h1         1 5U7       0.041533
     57 H24         -8.0160     3.8740     0.9270 h1         1 5U7       0.041533
     58 H25         -6.5750     4.4480     1.8200 h1         1 5U7       0.041533
     59 H5          -7.2660    -1.2660    -0.0580 hn         1 5U7       0.313000
     60 C11          1.7540    -3.0060     0.5280 c3         1 5U7      -0.032800
     61 C13         -5.5900    -2.3990    -0.3790 c          1 5U7       0.610200
@<TRIPOS>BOND
     1     1     2 ar  
     2     1     5 ar  
     3     1    27 1   
     4     2    10 ar  
     5     2    32 1   
     6     3     6 ar  
     7     3     9 ar  
     8     3    33 1   
     9     4     7 ar  
    10     4     9 ar  
    11     4    34 1   
    12     5    30 ar  
    13     5    35 1   
    14     6    11 ar  
    15     6    36 1   
    16     7    11 ar  
    17     7    60 1   
    18     8    10 ar  
    19     8    30 ar  
    20     8    37 1   
    21     9    10 1   
    22    11    25 1   
    23    12    13 1   
    24    12    14 1   
    25    12    21 1   
    26    12    41 1   
    27    13    15 1   
    28    13    22 1   
    29    13    42 1   
    30    14    16 1   
    31    14    23 1   
    32    14    43 1   
    33    15    18 1   
    34    15    20 1   
    35    15    44 1   
    36    16    20 1   
    37    16    25 1   
    38    16    45 1   
    39    17    31 1   
    40    17    46 1   
    41    17    47 1   
    42    17    48 1   
    43    18    24 1   
    44    18    49 1   
    45    18    50 1   
    46    19    61 2   
    47    21    51 1   
    48    22    52 1   
    49    23    53 1   
    50    24    54 1   
    51    26    27 2   
    52    27    28 1   
    53    28    29 1   
    54    28    55 1   
    55    29    56 1   
    56    29    57 1   
    57    29    58 1   
    58    30    61 1   
    59    31    59 1   
    60    31    61 1   
    61    38    60 1   
    62    39    60 1   
    63    40    60 1   
@<TRIPOS>SUBSTRUCTURE
     1 5U7         1 TEMP              0 ****  ****    0 ROOT
