@<TRIPOS>MOLECULE
5U7
   61    63     1     0     0
SMALL
bcc


@<TRIPOS>ATOM
      1 C1          -4.4630     1.2340     0.0490 ca         1 5U7      -0.157100
      2 C2          -3.0810     1.0970     0.0240 ca         1 5U7      -0.054500
      3 C3          -0.2040     0.7630    -0.7530 ca         1 5U7      -0.080000
      4 C4          -0.3910    -1.4440     0.1360 ca         1 5U7      -0.086000
      5 C5          -5.2680     0.1300    -0.2150 ca         1 5U7      -0.090000
      6 C6           1.1750     0.6250    -0.8080 ca         1 5U7      -0.192000
      7 C7           0.9830    -1.6170     0.0860 ca         1 5U7      -0.106300
      8 C8          -3.3050    -1.2220    -0.5180 ca         1 5U7      -0.054500
      9 C9          -1.0140    -0.2680    -0.2880 cp         1 5U7      -0.074000
     10 C10         -2.4820    -0.1300    -0.2530 cp         1 5U7      -0.034000
     11 C12          1.7680    -0.5670    -0.4100 ca         1 5U7       0.150100
     12 C14          5.9680    -0.9830    -0.0500 c6         1 5U7       0.119100
     13 C15          6.1800     0.3090     0.7310 c6         1 5U7       0.122100
     14 C16          5.2640    -0.6960    -1.3730 c6         1 5U7       0.100100
     15 C17          4.8390     1.0200     0.9160 c6         1 5U7       0.149100
     16 C18          3.9730     0.0810    -1.0970 c6         1 5U7       0.310900
     17 C19         -7.6340    -3.4710    -0.5990 c3         1 5U7       0.093800
     18 C20          5.0110     2.3870     1.5440 c3         1 5U7       0.146400
     19 O21         -5.0280    -3.2260    -1.5000 o          1 5U7      -0.597100
     20 O22          4.2000     1.2170    -0.3380 os         1 5U7      -0.396600
     21 O23          7.2260    -1.5870    -0.2290 oh         1 5U7      -0.588800
     22 O24          6.7020     0.0450     2.0100 oh         1 5U7      -0.599800
     23 O25          6.1200     0.0740    -2.1760 oh         1 5U7      -0.566800
     24 O26          3.7420     2.9430     1.7880 oh         1 5U7      -0.587800
     25 O27          3.0960    -0.8200    -0.4650 os         1 5U7      -0.362900
     26 O3          -4.3700     3.6050     0.1010 o          1 5U7      -0.597100
     27 C02         -5.0260     2.5950     0.3240 c          1 5U7       0.677200
     28 N1          -6.2680     2.6400     0.8230 ns         1 5U7      -0.571900
     29 C21         -6.9330     3.8880     1.1160 c3         1 5U7       0.093800
     30 C01         -4.6890    -1.1050    -0.4910 ca         1 5U7      -0.157100
     31 N           -6.7510    -2.3560    -0.3480 ns         1 5U7      -0.571900
     32 H17         -2.4640     1.9600     0.2370 ha         1 5U7       0.159500
     33 H12         -0.6430     1.6900    -1.1010 ha         1 5U7       0.139000
     34 H13         -0.9920    -2.2550     0.5310 ha         1 5U7       0.133000
     35 H18         -6.3430     0.2440    -0.2630 ha         1 5U7       0.127000
     36 H11          1.7620     1.4610    -1.1640 ha         1 5U7       0.154000
     37 H19         -2.8660    -2.1780    -0.7740 ha         1 5U7       0.159500
     38 H16          2.3660    -2.7170     1.3230 hc         1 5U7       0.041700
     39 H15          0.8710    -3.5720     0.9510 hc         1 5U7       0.041700
     40 H14          2.1290    -3.4080    -0.2710 hc         1 5U7       0.041700
     41 H2           5.3110    -1.6270     0.5490 h1         1 5U7       0.060700
     42 H1           6.8530     0.9680     0.1610 h1         1 5U7       0.070700
     43 H3           5.0010    -1.6440    -1.8630 h1         1 5U7       0.050700
     44 H            4.2090     0.4040     1.5730 h1         1 5U7       0.071700
     45 H4           3.5390     0.4290    -2.0430 h2         1 5U7       0.078700
     46 H22         -7.7440    -3.6530    -1.6670 h1         1 5U7       0.041533
     47 H20         -7.2760    -4.3890    -0.1290 h1         1 5U7       0.041533
     48 H21         -8.6110    -3.2330    -0.1890 h1         1 5U7       0.041533
     49 H26          5.5860     2.2710     2.4700 h1         1 5U7       0.036200
     50 H27          5.6110     3.0140     0.8700 h1         1 5U7       0.036200
     51 H8           7.1000    -2.5310    -0.3670 ho         1 5U7       0.409000
     52 H9           7.5160    -0.4570     1.8970 ho         1 5U7       0.424000
     53 H7           5.7580     0.1090    -3.0670 ho         1 5U7       0.406000
     54 H10          3.8690     3.7700     2.2610 ho         1 5U7       0.404000
     55 H6          -6.7230     1.7900     1.1070 hn         1 5U7       0.313000
     56 H23         -6.9620     4.5330     0.2390 h1         1 5U7       0.041533
     57 H24         -7.9530     3.6700     1.4160 h1         1 5U7       0.041533
     58 H25         -6.4430     4.4310     1.9260 h1         1 5U7       0.041533
     59 H5          -7.0570    -1.6590     0.3090 hn         1 5U7       0.313000
     60 C11          1.6200    -2.8940     0.5460 c3         1 5U7      -0.032800
     61 C13         -5.5000    -2.3200    -0.8260 c          1 5U7       0.677200
@<TRIPOS>BOND
     1     1     2 ar  
     2     1     5 ar  
     3     1    27 1   
     4     2    10 ar  
     5     2    32 1   
     6     3     6 ar  
     7     3     9 ar  
     8     3    33 1   
     9     4     7 ar  
    10     4     9 ar  
    11     4    34 1   
    12     5    30 ar  
    13     5    35 1   
    14     6    11 ar  
    15     6    36 1   
    16     7    11 ar  
    17     7    60 1   
    18     8    10 ar  
    19     8    30 ar  
    20     8    37 1   
    21     9    10 1   
    22    11    25 1   
    23    12    13 1   
    24    12    14 1   
    25    12    21 1   
    26    12    41 1   
    27    13    15 1   
    28    13    22 1   
    29    13    42 1   
    30    14    16 1   
    31    14    23 1   
    32    14    43 1   
    33    15    18 1   
    34    15    20 1   
    35    15    44 1   
    36    16    20 1   
    37    16    25 1   
    38    16    45 1   
    39    17    31 1   
    40    17    46 1   
    41    17    47 1   
    42    17    48 1   
    43    18    24 1   
    44    18    49 1   
    45    18    50 1   
    46    19    61 2   
    47    21    51 1   
    48    22    52 1   
    49    23    53 1   
    50    24    54 1   
    51    26    27 2   
    52    27    28 1   
    53    28    29 1   
    54    28    55 1   
    55    29    56 1   
    56    29    57 1   
    57    29    58 1   
    58    30    61 1   
    59    31    59 1   
    60    31    61 1   
    61    38    60 1   
    62    39    60 1   
    63    40    60 1   
@<TRIPOS>SUBSTRUCTURE
     1 5U7         1 TEMP              0 ****  ****    0 ROOT
