@<TRIPOS>MOLECULE
5U8
   47    50     1     0     0
SMALL
bcc


@<TRIPOS>ATOM
      1 C8           1.9520     0.7470    -0.3180 c3         1 5U8       0.167800
      2 N4          -6.4770     1.0780     1.7650 ns         1 5U8      -0.494400
      3 C2           5.4610     0.2800     0.8650 ca         1 5U8      -0.101300
      4 C3           6.5030     1.0860     1.3060 ca         1 5U8      -0.090000
      5 C4           7.8140     0.6230     1.3310 ca         1 5U8      -0.173500
      6 C5           8.0630    -0.6640     0.9030 ca         1 5U8       0.133900
      7 C6           7.0540    -1.4960     0.4530 ca         1 5U8      -0.173500
      8 C1           4.0370     0.7700     0.8640 c3         1 5U8       0.217100
      9 C7           5.7550    -1.0140     0.4370 ca         1 5U8      -0.090000
     10 C9           1.1920     0.1910    -1.5230 c3         1 5U8       0.008900
     11 N1          -2.4030     0.0300    -0.9040 na         1 5U8       0.059600
     12 C10         -0.2810     0.3490    -1.3500 cc         1 5U8      -0.269600
     13 C11         -1.2030    -0.6000    -0.9970 cd         1 5U8      -0.095300
     14 N2          -2.3170     1.3310    -1.1980 nd         1 5U8      -0.480800
     15 C12         -1.0470     1.5340    -1.4630 cc         1 5U8       0.309200
     16 C13         -3.6380    -0.5880    -0.6570 ca         1 5U8       0.542800
     17 C15         -5.2520     1.6400     1.6060 cc         1 5U8       0.501800
     18 C14         -4.5990     0.0110     0.1890 ca         1 5U8       0.084100
     19 C16         -6.8630    -0.0980     1.1690 c          1 5U8       0.715100
     20 N3          -4.3220     1.1720     0.8600 nd         1 5U8      -0.579100
     21 C17         -5.8110    -0.6760     0.3260 ca         1 5U8      -0.167600
     22 C18         -6.0000    -1.9020    -0.3080 ca         1 5U8      -0.182300
     23 O           -7.9610    -0.5850     1.3410 o          1 5U8      -0.594500
     24 C19         -4.9610    -2.4080    -1.0540 ca         1 5U8       0.403200
     25 N5          -3.8130    -1.7500    -1.2320 nb         1 5U8      -0.672000
     26 N            3.3880     0.5720    -0.4190 n3         1 5U8      -0.721600
     27 C            3.9720     1.4240    -1.4360 c3         1 5U8       0.148100
     28 F            9.3270    -1.1240     0.9180 f          1 5U8      -0.146900
     29 H1           1.6770     1.8070    -0.1710 h1         1 5U8       0.032700
     30 H2           1.6050     0.2150     0.5720 h1         1 5U8       0.032700
     31 H3          -7.1400     1.5370     2.3770 hn         1 5U8       0.336500
     32 H4           6.2970     2.0990     1.6310 ha         1 5U8       0.139500
     33 H5           8.6230     1.2570     1.6700 ha         1 5U8       0.148500
     34 H6           7.2800    -2.5020     0.1220 ha         1 5U8       0.148500
     35 H7           3.4740     0.2070     1.6140 h1         1 5U8       0.038700
     36 H8           4.0110     1.8240     1.1860 h1         1 5U8       0.038700
     37 H9           4.9560    -1.6510     0.0790 ha         1 5U8       0.139500
     38 H10          1.5020     0.6980    -2.4400 hc         1 5U8       0.053200
     39 H11          1.4450    -0.8640    -1.6470 hc         1 5U8       0.053200
     40 H12         -1.0960    -1.6530    -0.7960 h4         1 5U8       0.183000
     41 H13         -0.7010     2.5200    -1.7400 h4         1 5U8       0.038100
     42 H14         -5.0880     2.5490     2.1710 h5         1 5U8       0.054800
     43 H15         -6.9280    -2.4460    -0.2090 ha         1 5U8       0.169000
     44 H16         -5.0460    -3.3680    -1.5450 h4         1 5U8       0.034100
     45 H18          5.0510     1.2740    -1.4810 h1         1 5U8       0.032700
     46 H19          3.5770     1.1810    -2.4220 h1         1 5U8       0.032700
     47 H20          3.7880     2.4940    -1.2530 h1         1 5U8       0.032700
@<TRIPOS>BOND
     1     1    10 1   
     2     1    26 1   
     3     1    29 1   
     4     1    30 1   
     5     2    17 1   
     6     2    19 1   
     7     2    31 1   
     8     3     4 ar  
     9     3     8 1   
    10     3     9 ar  
    11     4     5 ar  
    12     4    32 1   
    13     5     6 ar  
    14     5    33 1   
    15     6     7 ar  
    16     6    28 1   
    17     7     9 ar  
    18     7    34 1   
    19     8    26 1   
    20     8    35 1   
    21     8    36 1   
    22     9    37 1   
    23    10    12 1   
    24    10    38 1   
    25    10    39 1   
    26    11    13 1   
    27    11    14 1   
    28    11    16 1   
    29    12    13 2   
    30    12    15 1   
    31    13    40 1   
    32    14    15 2   
    33    15    41 1   
    34    16    18 ar  
    35    16    25 ar  
    36    17    20 2   
    37    17    42 1   
    38    18    20 1   
    39    18    21 ar  
    40    19    21 1   
    41    19    23 2   
    42    21    22 ar  
    43    22    24 ar  
    44    22    43 1   
    45    24    25 ar  
    46    24    44 1   
    47    26    27 1   
    48    27    45 1   
    49    27    46 1   
    50    27    47 1   
@<TRIPOS>SUBSTRUCTURE
     1 5U8         1 TEMP              0 ****  ****    0 ROOT
