@<TRIPOS>MOLECULE
5U8
   47    50     1     0     0
SMALL
No Charge or Current Charge


@<TRIPOS>ATOM
      1 C8           1.8180     0.8700    -0.6420 c3         1 5U8       0.167800
      2 N4          -5.2500    -0.1370     2.6870 ns         1 5U8      -0.427400
      3 C2           5.2400     0.5930     1.0550 ca         1 5U8      -0.101300
      4 C3           6.3720     1.4290     0.9660 ca         1 5U8      -0.072000
      5 C4           7.6480     0.9280     1.2800 ca         1 5U8      -0.155500
      6 C5           7.7950    -0.4080     1.6840 ca         1 5U8       0.169000
      7 C6           6.6740    -1.2470     1.7760 ca         1 5U8      -0.155500
      8 C1           3.8520     1.1300     0.7160 c3         1 5U8       0.217100
      9 C7           5.3980    -0.7480     1.4620 ca         1 5U8      -0.072000
     10 C9           1.0410     0.0700    -1.7150 c3         1 5U8       0.008900
     11 N1          -2.5910     0.3900    -1.5080 na         1 5U8       0.110300
     12 C10         -0.4360     0.3680    -1.7040 cc         1 5U8      -0.204300
     13 C11         -1.4740    -0.4220    -1.3000 cd         1 5U8      -0.128000
     14 N2          -2.3240     1.6370    -2.0600 nd         1 5U8      -0.480800
     15 C12         -1.0090     1.5830    -2.1460 cc         1 5U8       0.243900
     16 C13         -3.8490    -0.1820    -1.2390 ca         1 5U8       0.477500
     17 C15         -4.0350     0.4070     2.3700 cc         1 5U8       0.501800
     18 C14         -4.3090    -0.1530     0.1260 ca         1 5U8       0.149400
     19 C16         -6.0850    -0.7190     1.8000 c          1 5U8       0.572600
     20 N3          -3.5070     0.4370     1.1450 nd         1 5U8      -0.579100
     21 C17         -5.5700    -0.7260     0.4080 ca         1 5U8      -0.167600
     22 C18         -6.3170    -1.2960    -0.6420 ca         1 5U8      -0.099000
     23 O           -7.1610    -1.1900     2.1350 o          1 5U8      -0.519000
     24 C19         -5.7950    -1.2820    -1.9390 ca         1 5U8       0.337900
     25 N5          -4.5950    -0.7440    -2.2380 nb         1 5U8      -0.672000
     26 N            3.2530     0.5070    -0.4910 n3         1 5U8      -0.721600
     27 C            4.0590     0.7500    -1.7150 c3         1 5U8       0.148100
     28 F            9.0210    -0.8880     1.9850 f          1 5U8      -0.182000
     29 H1           1.7260     1.9410    -0.8690 h1         1 5U8       0.032700
     30 H2           1.3050     0.7040     0.3150 h1         1 5U8       0.032700
     31 H3          -5.5630    -0.1110     3.6460 hn         1 5U8       0.336500
     32 H4           6.2640     2.4650     0.6510 ha         1 5U8       0.121500
     33 H5           8.5210     1.5720     1.2110 ha         1 5U8       0.130500
     34 H6           6.7960    -2.2810     2.0890 ha         1 5U8       0.130500
     35 H7           3.2070     0.9470     1.5870 h1         1 5U8       0.038700
     36 H8           3.9060     2.2200     0.5880 h1         1 5U8       0.038700
     37 H9           4.5290    -1.4000     1.5300 ha         1 5U8       0.121500
     38 H10          1.4420     0.2970    -2.7100 hc         1 5U8       0.053200
     39 H11          1.2030    -1.0010    -1.5460 hc         1 5U8       0.053200
     40 H12         -1.5130    -1.4290    -0.8990 h4         1 5U8       0.165000
     41 H13         -0.4830     2.4420    -2.5430 h4         1 5U8       0.038100
     42 H14         -3.5270     0.8220     3.2320 h5         1 5U8       0.054800
     43 H15         -7.2910    -1.7460    -0.4630 ha         1 5U8       0.151000
     44 H16         -6.3540    -1.7170    -2.7670 h4         1 5U8       0.034100
     45 H18          5.1020     0.4380    -1.5700 h1         1 5U8       0.032700
     46 H19          3.6700     0.1800    -2.5670 h1         1 5U8       0.032700
     47 H20          4.0550     1.8150    -1.9800 h1         1 5U8       0.032700
@<TRIPOS>BOND
     1     1    10 1   
     2     1    26 1   
     3     1    29 1   
     4     1    30 1   
     5     2    17 1   
     6     2    19 1   
     7     2    31 1   
     8     3     4 ar  
     9     3     8 1   
    10     3     9 ar  
    11     4     5 ar  
    12     4    32 1   
    13     5     6 ar  
    14     5    33 1   
    15     6     7 ar  
    16     6    28 1   
    17     7     9 ar  
    18     7    34 1   
    19     8    26 1   
    20     8    35 1   
    21     8    36 1   
    22     9    37 1   
    23    10    12 1   
    24    10    38 1   
    25    10    39 1   
    26    11    13 1   
    27    11    14 1   
    28    11    16 1   
    29    12    13 2   
    30    12    15 1   
    31    13    40 1   
    32    14    15 2   
    33    15    41 1   
    34    16    18 ar  
    35    16    25 ar  
    36    17    20 2   
    37    17    42 1   
    38    18    20 1   
    39    18    21 ar  
    40    19    21 1   
    41    19    23 2   
    42    21    22 ar  
    43    22    24 ar  
    44    22    43 1   
    45    24    25 ar  
    46    24    44 1   
    47    26    27 1   
    48    27    45 1   
    49    27    46 1   
    50    27    47 1   
@<TRIPOS>SUBSTRUCTURE
     1 5U8         1 TEMP              0 ****  ****    0 ROOT
