@<TRIPOS>MOLECULE
5U9
   27    28     1     0     0
SMALL
bcc


@<TRIPOS>ATOM
      1 C10         -1.8820     0.0750     0.3080 c          1 5U9       0.668100
      2 C13         -4.1210     0.1500    -0.9380 cy         1 5U9       0.156800
      3 C15         -4.2220     0.7640     1.0960 cy         1 5U9       0.156800
      4 C01          4.1530     1.8750    -0.8530 c3         1 5U9      -0.181100
      5 O03          5.0410    -0.1180     0.1150 o          1 5U9      -0.499100
      6 C04          2.7080     0.0310     0.1300 cc         1 5U9       0.286800
      7 C05          2.4590    -1.1810     0.6980 cd         1 5U9      -0.157400
      8 S06          0.7750    -1.4180     0.8790 ss         1 5U9      -0.049300
      9 C07          0.5260     0.1470     0.1730 cd         1 5U9       0.483300
     10 N08          1.6000     0.7760    -0.1640 nc         1 5U9      -0.655000
     11 N09         -0.7220     0.6940    -0.0130 ns         1 5U9      -0.502400
     12 O11         -1.9050    -1.0410     0.7920 o          1 5U9      -0.559100
     13 C12         -3.1350     0.8530     0.0130 cy         1 5U9      -0.173700
     14 N14         -5.2130     0.2690     0.0850 nl         1 5U9      -0.798000
     15 H1          -4.3640     0.6670    -1.8590 hx         1 5U9       0.127950
     16 H2          -3.9080    -0.8970    -1.1300 hx         1 5U9       0.127950
     17 H3          -4.0560     0.0050     1.8540 hx         1 5U9       0.127950
     18 H4          -4.5330     1.6990     1.5480 hx         1 5U9       0.127950
     19 H5           3.6150     2.6370    -0.2890 hc         1 5U9       0.069033
     20 H6           5.1910     2.1750    -0.9740 hc         1 5U9       0.069033
     21 H7           3.6800     1.8230    -1.8360 hc         1 5U9       0.069033
     22 H8           3.1680    -1.9320     1.0100 h4         1 5U9       0.209000
     23 H9          -0.7370     1.6220    -0.4140 hn         1 5U9       0.348500
     24 H10         -2.9250     1.8780    -0.2880 hc         1 5U9       0.116700
     25 H11         -5.9300     0.9510    -0.1570 hn         1 5U9       0.463800
     26 H12         -5.6870    -0.6010     0.3210 hn         1 5U9       0.463800
     27 C02          4.0640     0.5410    -0.1740 c          1 5U9       0.501600
@<TRIPOS>BOND
     1     1    11 1   
     2     1    12 2   
     3     1    13 1   
     4     2    13 1   
     5     2    14 1   
     6     2    15 1   
     7     2    16 1   
     8     3    13 1   
     9     3    14 1   
    10     3    17 1   
    11     3    18 1   
    12     4    19 1   
    13     4    20 1   
    14     4    21 1   
    15     4    27 1   
    16     5    27 2   
    17     6     7 2   
    18     6    10 1   
    19     6    27 1   
    20     7     8 1   
    21     7    22 1   
    22     8     9 1   
    23     9    10 2   
    24     9    11 1   
    25    11    23 1   
    26    13    24 1   
    27    14    25 1   
    28    14    26 1   
@<TRIPOS>SUBSTRUCTURE
     1 5U9         1 TEMP              0 ****  ****    0 ROOT
