@<TRIPOS>MOLECULE
5U9
   27    28     1     0     0
SMALL
No Charge or Current Charge


@<TRIPOS>ATOM
      1 C10         -2.0590    -0.0400     0.2430 c          1 5U9       0.601100
      2 C13         -4.0810    -0.0320    -0.9000 cy         1 5U9       0.128600
      3 C15         -4.0330     0.8160     1.1160 cy         1 5U9       0.128600
      4 C01          4.1220     1.9940    -0.7600 c3         1 5U9      -0.181100
      5 O03          5.0530    -0.0430     0.0760 o          1 5U9      -0.499100
      6 C04          2.6500     0.0370     0.0990 cc         1 5U9       0.221500
      7 C05          2.4910    -1.2220     0.6330 cd         1 5U9      -0.219000
      8 S06          0.7950    -1.6120     0.8370 ss         1 5U9       0.095600
      9 C07          0.4260    -0.0130     0.1720 cd         1 5U9       0.483300
     10 N08          1.4740     0.7190    -0.1610 nc         1 5U9      -0.655000
     11 N09         -0.8270     0.5100    -0.0180 ns         1 5U9      -0.435400
     12 O11         -2.1330    -1.1660     0.7180 o          1 5U9      -0.559100
     13 C12         -3.1540     1.0090    -0.1730 cy         1 5U9      -0.173700
     14 N14         -5.1430     0.4920     0.0920 nl         1 5U9      -0.852000
     15 H1          -4.3090     0.1620    -1.9540 hx         1 5U9       0.127950
     16 H2          -3.8550    -1.0970    -0.7630 hx         1 5U9       0.127950
     17 H3          -3.7960    -0.0300     1.7720 hx         1 5U9       0.127950
     18 H4          -4.2220     1.7090     1.7230 hx         1 5U9       0.127950
     19 H5           3.5750     2.6910    -0.1150 hc         1 5U9       0.069033
     20 H6           5.1560     2.3180    -0.9210 hc         1 5U9       0.069033
     21 H7           3.5380     2.0300    -1.6860 hc         1 5U9       0.069033
     22 H8           3.2590    -1.9320     0.9130 h4         1 5U9       0.191000
     23 H9          -0.8570     1.4390    -0.4080 hn         1 5U9       0.348500
     24 H10         -2.9120     1.9910    -0.5920 hc         1 5U9       0.116700
     25 H11         -5.6760     1.3390    -0.2520 hn         1 5U9       0.519000
     26 H12         -5.8680    -0.2130     0.4060 hn         1 5U9       0.519000
     27 C02          4.0260     0.5860    -0.1650 c          1 5U9       0.501600
@<TRIPOS>BOND
     1     1    11 1   
     2     1    12 2   
     3     1    13 1   
     4     2    13 1   
     5     2    14 1   
     6     2    15 1   
     7     2    16 1   
     8     3    13 1   
     9     3    14 1   
    10     3    17 1   
    11     3    18 1   
    12     4    19 1   
    13     4    20 1   
    14     4    21 1   
    15     4    27 1   
    16     5    27 2   
    17     6     7 2   
    18     6    10 1   
    19     6    27 1   
    20     7     8 1   
    21     7    22 1   
    22     8     9 1   
    23     9    10 2   
    24     9    11 1   
    25    11    23 1   
    26    13    24 1   
    27    14    25 1   
    28    14    26 1   
@<TRIPOS>SUBSTRUCTURE
     1 5U9         1 TEMP              0 ****  ****    0 ROOT
