@<TRIPOS>MOLECULE
5UB
   22    24     1     0     0
SMALL
No Charge or Current Charge


@<TRIPOS>ATOM
      1 O           -4.4810     0.0540    -0.1150 o          1 5UB      -0.525000
      2 C           -3.3490    -0.4020    -0.0710 c          1 5UB       0.573600
      3 C3          -2.1150     0.4240    -0.0720 ca         1 5UB      -0.176600
      4 C4          -2.2010     1.8280    -0.1270 ca         1 5UB      -0.093000
      5 C5          -1.0280     2.5850    -0.1270 ca         1 5UB       0.319900
      6 N2           0.1950     2.0250    -0.0760 nb         1 5UB      -0.650000
      7 C6           0.3190     0.6610    -0.0220 ca         1 5UB       0.347000
      8 C2          -0.8430    -0.2030    -0.0180 ca         1 5UB       0.154400
      9 N1          -0.7180    -1.6170     0.0380 nc         1 5UB      -0.582100
     10 C1          -1.8730    -2.2860     0.0360 cd         1 5UB       0.496800
     11 N           -3.1140    -1.7270    -0.0150 ns         1 5UB      -0.429400
     12 C7           1.7360     0.1470     0.0310 cc         1 5UB       0.229000
     13 N3           2.1200    -1.1780     0.0900 nc         1 5UB      -0.595000
     14 C9           3.4440    -1.2820     0.1260 cd         1 5UB       0.405300
     15 S            4.3300     0.2370     0.0900 ss         1 5UB      -0.028400
     16 C8           2.7800     1.0540     0.0220 cd         1 5UB      -0.229000
     17 H1          -3.1610     2.3360    -0.1690 ha         1 5UB       0.146000
     18 H2          -1.0670     3.6730    -0.1680 h4         1 5UB       0.028100
     19 H3          -1.9040    -3.3680     0.0750 h5         1 5UB       0.051800
     20 H4          -3.9310    -2.3210    -0.0130 hn         1 5UB       0.333500
     21 H5           3.9880    -2.2170     0.1740 h5         1 5UB       0.053100
     22 H6           2.7380     2.1350    -0.0190 h4         1 5UB       0.171000
@<TRIPOS>BOND
     1     1     2 2   
     2     2     3 1   
     3     2    11 1   
     4     3     4 ar  
     5     3     8 ar  
     6     4     5 ar  
     7     4    17 1   
     8     5     6 ar  
     9     5    18 1   
    10     6     7 ar  
    11     7     8 ar  
    12     7    12 1   
    13     8     9 1   
    14     9    10 2   
    15    10    11 1   
    16    10    19 1   
    17    11    20 1   
    18    12    13 1   
    19    12    16 2   
    20    13    14 2   
    21    14    15 1   
    22    14    21 1   
    23    15    16 1   
    24    16    22 1   
@<TRIPOS>SUBSTRUCTURE
     1 5UB         1 TEMP              0 ****  ****    0 ROOT
