@<TRIPOS>MOLECULE
5UB
   22    24     1     0     0
SMALL
abcg2


@<TRIPOS>ATOM
      1 O           -4.4340     0.0220    -0.0040 o          1 5UB      -0.525000
      2 C           -3.2920    -0.3850    -0.0620 c          1 5UB       0.573600
      3 C3          -2.0940     0.4560     0.0220 ca         1 5UB      -0.176600
      4 C4          -2.2010     1.8390     0.1340 ca         1 5UB      -0.093000
      5 C5          -1.0370     2.5730     0.1720 ca         1 5UB       0.319900
      6 N2           0.1740     2.0170     0.1440 nb         1 5UB      -0.650000
      7 C6           0.2980     0.7060     0.0630 ca         1 5UB       0.347000
      8 C2          -0.8300    -0.1450    -0.0350 ca         1 5UB       0.154400
      9 N1          -0.6640    -1.4940    -0.2150 nc         1 5UB      -0.582100
     10 C1          -1.7280    -2.2020    -0.3000 cd         1 5UB       0.496800
     11 N           -2.9930    -1.7160    -0.2190 ns         1 5UB      -0.429400
     12 C7           1.6760     0.1890     0.0470 cc         1 5UB       0.229000
     13 N3           2.0290    -0.9500     0.7160 nc         1 5UB      -0.595000
     14 C9           3.2930    -1.1840     0.5970 cd         1 5UB       0.405300
     15 S            4.1560    -0.0370    -0.3500 ss         1 5UB      -0.028400
     16 C8           2.7040     0.8240    -0.5880 cd         1 5UB      -0.229000
     17 H1          -3.1660     2.3250     0.1810 ha         1 5UB       0.146000
     18 H2          -1.0690     3.6540     0.2370 h4         1 5UB       0.028100
     19 H3          -1.6570    -3.2720    -0.4490 h5         1 5UB       0.051800
     20 H4          -3.7640    -2.3680    -0.2970 hn         1 5UB       0.333500
     21 H5           3.7990    -2.0240     1.0520 h5         1 5UB       0.053100
     22 H6           2.6660     1.7290    -1.1740 h4         1 5UB       0.171000
@<TRIPOS>BOND
     1     1     2 2   
     2     2     3 1   
     3     2    11 1   
     4     3     4 ar  
     5     3     8 ar  
     6     4     5 ar  
     7     4    17 1   
     8     5     6 ar  
     9     5    18 1   
    10     6     7 ar  
    11     7     8 ar  
    12     7    12 1   
    13     8     9 1   
    14     9    10 2   
    15    10    11 1   
    16    10    19 1   
    17    11    20 1   
    18    12    13 1   
    19    12    16 2   
    20    13    14 2   
    21    14    15 1   
    22    14    21 1   
    23    15    16 1   
    24    16    22 1   
@<TRIPOS>SUBSTRUCTURE
     1 5UB         1 TEMP              0 ****  ****    0 ROOT
