@<TRIPOS>MOLECULE
5UC
   12    12     1     0     0
SMALL
No Charge or Current Charge


@<TRIPOS>ATOM
      1 O2          -3.1980    -0.0440     0.0070 o          1 5UC      -0.541000
      2 C2          -1.9850    -0.1130     0.0080 c          1 5UC       0.618000
      3 N3          -1.1830     0.9830    -0.0090 ns         1 5UC      -0.470500
      4 C4           0.1830     1.0330    -0.0090 c          1 5UC       0.596200
      5 O4           0.7810     2.0980    -0.0260 o          1 5UC      -0.497000
      6 N1          -1.3140    -1.3020     0.0270 ns         1 5UC      -0.513600
      7 C6           0.0690    -1.4500     0.0300 cc         1 5UC       0.006600
      8 C5           0.8340    -0.3070     0.0120 cd         1 5UC      -0.108200
      9 Cl5          2.5750    -0.3570     0.0130 cl         1 5UC      -0.125000
     10 H1          -1.6560     1.8730    -0.0230 hn         1 5UC       0.347500
     11 H2           0.4320    -2.4760     0.0460 h4         1 5UC       0.219000
     12 H4          -1.9190    -2.1200     0.0400 hn         1 5UC       0.467000
@<TRIPOS>BOND
     1     1     2 2   
     2     2     3 1   
     3     2     6 1   
     4     3     4 1   
     5     3    10 1   
     6     4     5 2   
     7     4     8 1   
     8     6     7 1   
     9     6    12 1   
    10     7     8 2   
    11     7    11 1   
    12     8     9 1   
@<TRIPOS>SUBSTRUCTURE
     1 5UC         1 TEMP              0 ****  ****    0 ROOT
