@<TRIPOS>MOLECULE
5UC
   12    12     1     0     0
SMALL
abcg2


@<TRIPOS>ATOM
      1 O2          -3.2060    -0.0480     0.0060 o          1 5UC      -0.541000
      2 C2          -1.9970    -0.1210     0.0080 c          1 5UC       0.618000
      3 N3          -1.1780     0.9820    -0.0090 ns         1 5UC      -0.470500
      4 C4           0.2050     1.0180    -0.0090 c          1 5UC       0.596200
      5 O4           0.8110     2.0680    -0.0250 o          1 5UC      -0.497000
      6 N1          -1.3160    -1.3100     0.0270 ns         1 5UC      -0.513600
      7 C6           0.0370    -1.4000     0.0290 cc         1 5UC       0.006600
      8 C5           0.8110    -0.3000     0.0120 cd         1 5UC      -0.108200
      9 CL5          2.5230    -0.3910     0.0140 cl         1 5UC      -0.125000
     10 H1          -1.6510     1.8780    -0.0230 hn         1 5UC       0.347500
     11 H2           0.4440    -2.4010     0.0440 h4         1 5UC       0.219000
     12 H4          -1.8650    -2.1580     0.0420 hn         1 5UC       0.467000
@<TRIPOS>BOND
     1     1     2 2   
     2     2     3 1   
     3     2     6 1   
     4     3     4 1   
     5     3    10 1   
     6     4     5 2   
     7     4     8 1   
     8     6     7 1   
     9     6    12 1   
    10     7     8 2   
    11     7    11 1   
    12     8     9 1   
@<TRIPOS>SUBSTRUCTURE
     1 5UC         1 TEMP              0 ****  ****    0 ROOT
