@<TRIPOS>MOLECULE
5UD
   29    30     1     0     0
SMALL
No Charge or Current Charge


@<TRIPOS>ATOM
      1 F5          -1.4450     0.7260    -4.0370 f          1 5UD      -0.136500
      2 C5          -0.6340     0.3730    -3.0230 cc         1 5UD      -0.035700
      3 C4           0.6740    -0.2360    -3.3520 c          1 5UD       0.578200
      4 O4           1.0860    -0.4460    -4.4830 o          1 5UD      -0.496000
      5 N3           1.4130    -0.5660    -2.2560 ns         1 5UD      -0.470500
      6 C2           1.1000    -0.4010    -0.9400 c          1 5UD       0.629000
      7 O2           1.8720    -0.7970    -0.0850 o          1 5UD      -0.554000
      8 C6          -1.0090     0.5740    -1.7150 cd         1 5UD      -0.036400
      9 N1          -0.1510     0.2060    -0.6720 n          1 5UD      -0.303000
     10 C1          -0.5620     0.5130     0.7290 c5         1 5UD       0.346700
     11 C9          -1.0460    -0.8030     1.4160 c5         1 5UD       0.133300
     12 O6          -2.3620    -1.2360     1.0340 oh         1 5UD      -0.686000
     13 C3          -1.0500    -0.2870     2.8820 c5         1 5UD       0.100300
     14 O3          -2.2110     0.5350     3.1180 oh         1 5UD      -0.694000
     15 C8           0.2980     0.5280     2.9150 c5         1 5UD       0.135300
     16 O1           0.5010     1.0230     1.5580 os         1 5UD      -0.422000
     17 C7           1.5270    -0.3270     3.3460 c3         1 5UD       0.151600
     18 O5           2.6810     0.4990     3.5870 oh         1 5UD      -0.700000
     19 HN3          2.3060    -0.9950    -2.4400 hn         1 5UD       0.345500
     20 H6          -1.9550     1.0160    -1.4130 h4         1 5UD       0.227000
     21 H1          -1.3750     1.2480     0.6900 h2         1 5UD       0.087700
     22 H2          -0.3140    -1.6120     1.2810 h1         1 5UD       0.073700
     23 HO2         -2.9590    -0.7270     1.6380 ho         1 5UD       0.516000
     24 H3          -1.0280    -1.1240     3.5950 h1         1 5UD       0.055700
     25 HO3         -2.2100     0.7900     4.0730 ho         1 5UD       0.509000
     26 H4           0.2190     1.3830     3.6010 h1         1 5UD       0.081700
     27 H5'1         1.7390    -1.0750     2.5720 h1         1 5UD       0.029200
     28 H5'2         1.2660    -0.8710     4.2640 h1         1 5UD       0.029200
     29 HO5          3.4440    -0.1080     3.7360 ho         1 5UD       0.508000
@<TRIPOS>BOND
     1     1     2 1   
     2     2     3 1   
     3     2     8 2   
     4     3     4 2   
     5     3     5 1   
     6     5     6 1   
     7     5    19 1   
     8     6     7 2   
     9     6     9 1   
    10     8     9 1   
    11     8    20 1   
    12     9    10 1   
    13    10    11 1   
    14    10    16 1   
    15    10    21 1   
    16    11    12 1   
    17    11    13 1   
    18    11    22 1   
    19    12    23 1   
    20    13    14 1   
    21    13    15 1   
    22    13    24 1   
    23    14    25 1   
    24    15    16 1   
    25    15    17 1   
    26    15    26 1   
    27    17    18 1   
    28    17    27 1   
    29    17    28 1   
    30    18    29 1   
@<TRIPOS>SUBSTRUCTURE
     1 5UD         1 TEMP              0 ****  ****    0 ROOT
