@<TRIPOS>MOLECULE
5UD
   29    30     1     0     0
SMALL
abcg2


@<TRIPOS>ATOM
      1 F5          -1.0380     1.2260    -3.9380 f          1 5UD      -0.136500
      2 C5          -0.4060     0.6240    -2.9280 cc         1 5UD      -0.035700
      3 C4           0.7320    -0.2020    -3.2640 c          1 5UD       0.578200
      4 O4           1.1600    -0.3930    -4.3820 o          1 5UD      -0.496000
      5 N3           1.3030    -0.7690    -2.1440 ns         1 5UD      -0.470500
      6 C2           0.9260    -0.6460    -0.8260 c          1 5UD       0.629000
      7 O2           1.5210    -1.2220     0.0560 o          1 5UD      -0.554000
      8 C6          -0.8000     0.7860    -1.6630 cd         1 5UD      -0.036400
      9 N1          -0.1650     0.1720    -0.6120 n          1 5UD      -0.303000
     10 C1          -0.6560     0.4380     0.7360 c5         1 5UD       0.346700
     11 C9          -1.1400    -0.7760     1.5260 c5         1 5UD       0.133300
     12 O6          -2.4120    -1.1340     1.0830 oh         1 5UD      -0.686000
     13 C3          -1.0400    -0.2280     2.9530 c5         1 5UD       0.100300
     14 O3          -2.1700     0.5720     3.1870 oh         1 5UD      -0.694000
     15 C8           0.2530     0.5900     2.8620 c5         1 5UD       0.135300
     16 O1           0.3300     1.0490     1.5070 os         1 5UD      -0.422000
     17 C7           1.4750    -0.2190     3.2440 c3         1 5UD       0.151600
     18 O5           2.6190     0.5780     3.0640 oh         1 5UD      -0.700000
     19 HN3          2.1080    -1.3630    -2.3020 hn         1 5UD       0.345500
     20 H6          -1.6440     1.4150    -1.4170 h4         1 5UD       0.227000
     21 H1          -1.5060     1.1140     0.5880 h2         1 5UD       0.087700
     22 H2          -0.4290    -1.6010     1.4330 h1         1 5UD       0.073700
     23 HO2         -2.6320    -1.9970     1.4460 ho         1 5UD       0.516000
     24 H3          -0.9550    -1.0310     3.6960 h1         1 5UD       0.055700
     25 HO3         -2.0790     0.9800     4.0540 ho         1 5UD       0.509000
     26 H4           0.2000     1.4700     3.5130 h1         1 5UD       0.081700
     27 H5'1         1.5190    -1.1360     2.6480 h1         1 5UD       0.029200
     28 H5'2         1.3500    -0.5200     4.2930 h1         1 5UD       0.029200
     29 HO5          3.3920     0.0240     3.2050 ho         1 5UD       0.508000
@<TRIPOS>BOND
     1     1     2 1   
     2     2     3 1   
     3     2     8 2   
     4     3     4 2   
     5     3     5 1   
     6     5     6 1   
     7     5    19 1   
     8     6     7 2   
     9     6     9 1   
    10     8     9 1   
    11     8    20 1   
    12     9    10 1   
    13    10    11 1   
    14    10    16 1   
    15    10    21 1   
    16    11    12 1   
    17    11    13 1   
    18    11    22 1   
    19    12    23 1   
    20    13    14 1   
    21    13    15 1   
    22    13    24 1   
    23    14    25 1   
    24    15    16 1   
    25    15    17 1   
    26    15    26 1   
    27    17    18 1   
    28    17    27 1   
    29    17    28 1   
    30    18    29 1   
@<TRIPOS>SUBSTRUCTURE
     1 5UD         1 TEMP              0 ****  ****    0 ROOT
