@<TRIPOS>MOLECULE
5UE
   26    26     1     0     0
SMALL
No Charge or Current Charge


@<TRIPOS>ATOM
      1 C13         -3.9710     1.9580    -0.6490 c3         1 5UE      -0.181100
      2 C01          4.1040     1.4400     1.1980 c3         1 5UE      -0.126100
      3 C02          3.4990     0.8300    -0.0820 c3         1 5UE       0.026300
      4 C03          2.2740    -0.0820     0.2530 c          1 5UE       0.578100
      5 O04          2.4210    -1.2320     0.6400 o          1 5UE      -0.562100
      6 C06         -0.2000    -0.0680     0.1740 cc         1 5UE       0.473300
      7 N07         -1.2380     0.6920    -0.1230 nd         1 5UE      -0.647000
      8 C08         -2.4340    -0.0060     0.0870 cd         1 5UE       0.221500
      9 C09         -2.2510    -1.2950     0.5460 cc         1 5UE      -0.211000
     10 S10         -0.5670    -1.6860     0.7330 ss         1 5UE       0.097600
     11 C11         -3.8270     0.5210    -0.1400 c          1 5UE       0.501600
     12 O12         -4.8320    -0.1530     0.0670 o          1 5UE      -0.494100
     13 N14          4.5860     0.0750    -0.8500 nz         1 5UE      -0.963000
     14 H1          -3.3930     2.0660    -1.5740 hc         1 5UE       0.070033
     15 H2          -5.0160     2.2590    -0.7860 hc         1 5UE       0.070033
     16 H3          -3.4410     2.6310     0.0340 hc         1 5UE       0.070033
     17 H5           4.9300     2.1190     0.9540 hc         1 5UE       0.089367
     18 H6           3.3480     2.0150     1.7470 hc         1 5UE       0.089367
     19 H7           3.1260     1.6420    -0.7160 hx         1 5UE       0.120700
     20 H9          -3.0000    -2.0390     0.7850 h4         1 5UE       0.194000
     21 H10          4.9470    -0.7450    -0.3360 hn         1 5UE       0.522667
     22 H11          4.2640    -0.3050    -1.7550 hn         1 5UE       0.522667
     23 H12          5.4140     0.6480    -1.0780 hn         1 5UE       0.522667
     24 N05          1.0450     0.4860     0.0180 ns         1 5UE      -0.427400
     25 H4           4.4870     0.6570     1.8650 hc         1 5UE       0.089367
     26 H8           1.0570     1.4390    -0.3130 hn         1 5UE       0.352500
@<TRIPOS>BOND
     1     1    11 1   
     2     1    14 1   
     3     1    15 1   
     4     1    16 1   
     5     2     3 1   
     6     2    17 1   
     7     2    18 1   
     8     2    25 1   
     9     3     4 1   
    10     3    13 1   
    11     3    19 1   
    12     4     5 2   
    13     4    24 1   
    14     6     7 2   
    15     6    10 1   
    16     6    24 1   
    17     7     8 1   
    18     8     9 2   
    19     8    11 1   
    20     9    10 1   
    21     9    20 1   
    22    11    12 2   
    23    13    21 1   
    24    13    22 1   
    25    13    23 1   
    26    24    26 1   
@<TRIPOS>SUBSTRUCTURE
     1 5UE         1 TEMP              0 ****  ****    0 ROOT
