@<TRIPOS>MOLECULE
5UE
   26    26     1     0     0
SMALL
abcg2


@<TRIPOS>ATOM
      1 C13         -3.8210     1.9750    -0.3670 c3         1 5UE      -0.181100
      2 C01          3.7550     1.5820     1.0260 c3         1 5UE      -0.126100
      3 C02          3.4790     0.7800    -0.2370 c3         1 5UE       0.026300
      4 C03          2.2350    -0.0750    -0.0780 c          1 5UE       0.578100
      5 O04          2.2870    -1.2570     0.1960 o          1 5UE      -0.562100
      6 C06         -0.1710     0.0390    -0.0210 cc         1 5UE       0.473300
      7 N07         -1.2500     0.7300    -0.1520 nd         1 5UE      -0.647000
      8 C08         -2.3500    -0.0440     0.0990 cd         1 5UE       0.221500
      9 C09         -2.0880    -1.3380     0.4260 cc         1 5UE      -0.211000
     10 S10         -0.4020    -1.6230     0.4210 ss         1 5UE       0.097600
     11 C11         -3.7140     0.5280     0.0090 c          1 5UE       0.501600
     12 O12         -4.6800    -0.1690     0.2350 o          1 5UE      -0.494100
     13 N14          4.6170    -0.1220    -0.5300 nz         1 5UE      -0.963000
     14 H1          -3.3670     2.1520    -1.3430 hc         1 5UE       0.070033
     15 H2          -4.8630     2.2850    -0.3960 hc         1 5UE       0.070033
     16 H3          -3.2790     2.5970     0.3470 hc         1 5UE       0.070033
     17 H5           4.6730     2.1570     0.9160 hc         1 5UE       0.089367
     18 H6           2.9440     2.2860     1.2020 hc         1 5UE       0.089367
     19 H7           3.3800     1.4440    -1.0950 hx         1 5UE       0.120700
     20 H9          -2.7870    -2.1250     0.6620 h4         1 5UE       0.194000
     21 H10          4.7300    -0.8500     0.1790 hn         1 5UE       0.522667
     22 H11          4.5200    -0.5930    -1.4310 hn         1 5UE       0.522667
     23 H12          5.4920     0.4010    -0.5670 hn         1 5UE       0.522667
     24 N05          1.0720     0.5970    -0.2200 ns         1 5UE      -0.427400
     25 H4           3.8440     0.9350     1.8980 hc         1 5UE       0.089367
     26 H8           1.0750     1.5740    -0.4800 hn         1 5UE       0.352500
@<TRIPOS>BOND
     1     1    11 1   
     2     1    14 1   
     3     1    15 1   
     4     1    16 1   
     5     2     3 1   
     6     2    17 1   
     7     2    18 1   
     8     2    25 1   
     9     3     4 1   
    10     3    13 1   
    11     3    19 1   
    12     4     5 2   
    13     4    24 1   
    14     6     7 2   
    15     6    10 1   
    16     6    24 1   
    17     7     8 1   
    18     8     9 2   
    19     8    11 1   
    20     9    10 1   
    21     9    20 1   
    22    11    12 2   
    23    13    21 1   
    24    13    22 1   
    25    13    23 1   
    26    24    26 1   
@<TRIPOS>SUBSTRUCTURE
     1 5UE         1 TEMP              0 ****  ****    0 ROOT
