@<TRIPOS>MOLECULE
5UF
   32    31     1     0     0
SMALL
No Charge or Current Charge


@<TRIPOS>ATOM
      1 C1          -4.4730     0.1640     0.3230 c          1 5UF       0.725000
      2 C2          -3.1830     0.8710    -0.1150 c3         1 5UF      -0.235400
      3 C3          -1.9800    -0.0910    -0.0050 c3         1 5UF       0.181300
      4 C4          -0.6260     0.6430    -0.1820 c3         1 5UF      -0.112400
      5 C5           0.6170    -0.2540     0.0370 c3         1 5UF      -0.071400
      6 C6           1.9480     0.5180    -0.0940 c3         1 5UF      -0.076400
      7 O14         -2.0960    -1.1060    -1.0050 oh         1 5UF      -0.655000
      8 O13         -5.1810    -0.3410    -0.5360 o          1 5UF      -0.737500
      9 O12         -4.7340     0.1380     1.5160 o          1 5UF      -0.737500
     10 C7           3.1890    -0.3750     0.1250 c3         1 5UF      -0.075400
     11 C8           4.5200     0.3970    -0.0060 c3         1 5UF      -0.075400
     12 C9           5.7610    -0.4960     0.2130 c3         1 5UF      -0.075400
     13 C10          7.0900     0.2740     0.0820 c3         1 5UF      -0.087100
     14 H1          -3.2450     1.2010    -1.1600 hc         1 5UF       0.018200
     15 H2          -2.9620     1.6860     0.5860 hc         1 5UF       0.018200
     16 H3          -1.9890    -0.5440     0.9990 h1         1 5UF       0.082700
     17 H4          -0.5800     1.0890    -1.1830 hc         1 5UF       0.028700
     18 H5          -0.5800     1.4740     0.5330 hc         1 5UF       0.028700
     19 H6           0.5610    -0.7080     1.0340 hc         1 5UF       0.041200
     20 H7           0.6090    -1.0760    -0.6900 hc         1 5UF       0.041200
     21 H8           2.0040     0.9730    -1.0910 hc         1 5UF       0.030700
     22 H9           1.9630     1.3380     0.6340 hc         1 5UF       0.030700
     23 H10         -2.3410    -0.6490    -1.8370 ho         1 5UF       0.421000
     24 H12          3.1340    -0.8310     1.1220 hc         1 5UF       0.035700
     25 H13          3.1760    -1.1960    -0.6030 hc         1 5UF       0.035700
     26 H14          4.5760     0.8520    -1.0030 hc         1 5UF       0.034200
     27 H15          4.5340     1.2170     0.7230 hc         1 5UF       0.034200
     28 H16          5.7100    -0.9520     1.2100 hc         1 5UF       0.035700
     29 H17          5.7520    -1.3170    -0.5150 hc         1 5UF       0.035700
     30 H18          7.9390    -0.4000     0.2450 hc         1 5UF       0.027033
     31 H19          7.1870     0.7130    -0.9180 hc         1 5UF       0.027033
     32 H20          7.1450     1.0810     0.8230 hc         1 5UF       0.027033
@<TRIPOS>BOND
     1     1     2 1   
     2     1     8 1   
     3     1     9 1   
     4     2     3 1   
     5     2    14 1   
     6     2    15 1   
     7     3     4 1   
     8     3     7 1   
     9     3    16 1   
    10     4     5 1   
    11     4    17 1   
    12     4    18 1   
    13     5     6 1   
    14     5    19 1   
    15     5    20 1   
    16     6    10 1   
    17     6    21 1   
    18     6    22 1   
    19     7    23 1   
    20    10    11 1   
    21    10    24 1   
    22    10    25 1   
    23    11    12 1   
    24    11    26 1   
    25    11    27 1   
    26    12    13 1   
    27    12    28 1   
    28    12    29 1   
    29    13    30 1   
    30    13    31 1   
    31    13    32 1   
@<TRIPOS>SUBSTRUCTURE
     1 5UF         1 TEMP              0 ****  ****    0 ROOT
