@<TRIPOS>MOLECULE
5UF
   32    31     1     0     0
SMALL
bcc


@<TRIPOS>ATOM
      1 C1          -4.4710     0.1980     0.1230 c          1 5UF       0.935600
      2 C2          -3.1100     0.8620    -0.1440 c3         1 5UF      -0.235400
      3 C3          -1.9320    -0.0760     0.0810 c3         1 5UF       0.158100
      4 C4          -0.5960     0.6320    -0.1270 c3         1 5UF      -0.112400
      5 C5           0.6240    -0.2490     0.1070 c3         1 5UF      -0.071400
      6 C6           1.9360     0.5080    -0.0510 c3         1 5UF      -0.076400
      7 O14         -2.0460    -1.2360    -0.7280 oh         1 5UF      -0.592800
      8 O13         -5.3520     0.3190    -0.7520 o          1 5UF      -0.842800
      9 O12         -4.5920    -0.3960     1.2150 o          1 5UF      -0.842800
     10 C7           3.1660    -0.3670     0.1540 c3         1 5UF      -0.075400
     11 C8           4.4780     0.3910    -0.0100 c3         1 5UF      -0.075400
     12 C9           5.7100    -0.4840     0.1830 c3         1 5UF      -0.075400
     13 C10          7.0140     0.2820     0.0060 c3         1 5UF      -0.087100
     14 H1          -3.0680     1.2670    -1.1620 hc         1 5UF       0.018200
     15 H2          -3.0060     1.7200     0.5310 hc         1 5UF       0.018200
     16 H3          -1.9740    -0.4420     1.1110 h1         1 5UF       0.082700
     17 H4          -0.5600     1.0520    -1.1400 hc         1 5UF       0.028700
     18 H5          -0.5590     1.4890     0.5540 hc         1 5UF       0.028700
     19 H6           0.5750    -0.6810     1.1140 hc         1 5UF       0.041200
     20 H7           0.6090    -1.0940    -0.5870 hc         1 5UF       0.041200
     21 H8           1.9750     0.9590    -1.0490 hc         1 5UF       0.030700
     22 H9           1.9620     1.3430     0.6580 hc         1 5UF       0.030700
     23 H10         -2.0450    -0.9540    -1.6490 ho         1 5UF       0.382000
     24 H12          3.1300    -0.8180     1.1520 hc         1 5UF       0.035700
     25 H13          3.1400    -1.2020    -0.5550 hc         1 5UF       0.035700
     26 H14          4.5100     0.8470    -1.0060 hc         1 5UF       0.034200
     27 H15          4.5080     1.2220     0.7040 hc         1 5UF       0.034200
     28 H16          5.6820    -0.9360     1.1800 hc         1 5UF       0.035700
     29 H17          5.6780    -1.3170    -0.5270 hc         1 5UF       0.035700
     30 H18          7.8820    -0.3650     0.1370 hc         1 5UF       0.027033
     31 H19          7.0780     0.7240    -0.9900 hc         1 5UF       0.027033
     32 H20          7.0960     1.0950     0.7300 hc         1 5UF       0.027033
@<TRIPOS>BOND
     1     1     2 1   
     2     1     8 1   
     3     1     9 1   
     4     2     3 1   
     5     2    14 1   
     6     2    15 1   
     7     3     4 1   
     8     3     7 1   
     9     3    16 1   
    10     4     5 1   
    11     4    17 1   
    12     4    18 1   
    13     5     6 1   
    14     5    19 1   
    15     5    20 1   
    16     6    10 1   
    17     6    21 1   
    18     6    22 1   
    19     7    23 1   
    20    10    11 1   
    21    10    24 1   
    22    10    25 1   
    23    11    12 1   
    24    11    26 1   
    25    11    27 1   
    26    12    13 1   
    27    12    28 1   
    28    12    29 1   
    29    13    30 1   
    30    13    31 1   
    31    13    32 1   
@<TRIPOS>SUBSTRUCTURE
     1 5UF         1 TEMP              0 ****  ****    0 ROOT
