@<TRIPOS>MOLECULE
5UH
   31    32     1     0     0
SMALL
bcc


@<TRIPOS>ATOM
      1 C1           0.4920    -1.6120    -0.1480 ca         1 5UH       0.111100
      2 C2          -0.7250    -2.2680    -0.3130 ca         1 5UH      -0.217000
      3 C3          -1.8860    -1.5430    -0.5430 ca         1 5UH      -0.083000
      4 O1          -3.5640     0.4180     1.5030 o          1 5UH      -0.831800
      5 O2          -4.9870     1.5950     0.2550 o          1 5UH      -0.831800
      6 C11          3.7830     1.1180     1.1960 ca         1 5UH      -0.140000
      7 C12          4.1500     2.0380     0.2210 ca         1 5UH      -0.146000
      8 C13          3.3420     2.2120    -0.8930 ca         1 5UH      -0.140000
      9 C14          2.1770     1.4690    -1.0310 ca         1 5UH      -0.114000
     10 C6          -3.9650     0.9010     0.4310 c          1 5UH       0.934600
     11 C4          -1.8770    -0.1570    -0.6190 ca         1 5UH      -0.018300
     12 C7          -0.6510     0.4800    -0.4530 ca         1 5UH      -0.089000
     13 C8           0.5330    -0.2110    -0.2140 cp         1 5UH      -0.088000
     14 O            1.6660    -2.2460     0.0490 os         1 5UH      -0.326900
     15 C            1.6690    -3.6550     0.1270 c3         1 5UH       0.133700
     16 C9           1.8010     0.5380    -0.0620 cp         1 5UH       0.011000
     17 C10          2.6220     0.3720     1.0540 ca         1 5UH      -0.114000
     18 H1          -0.7850    -3.3480    -0.2750 ha         1 5UH       0.115000
     19 H2          -2.8170    -2.0840    -0.6720 ha         1 5UH       0.128000
     20 H4           4.4050     0.9820     2.0720 ha         1 5UH       0.117000
     21 H5           5.0590     2.6160     0.3310 ha         1 5UH       0.114000
     22 H6           3.6180     2.9230    -1.6610 ha         1 5UH       0.117000
     23 H7           1.5560     1.6030    -1.9090 ha         1 5UH       0.134500
     24 H8          -3.7810     0.0860    -1.5500 hc         1 5UH       0.031200
     25 H9          -2.9050     1.5770    -1.3260 hc         1 5UH       0.031200
     26 H10         -0.6110     1.5630    -0.5000 ha         1 5UH       0.131000
     27 H11          1.0540    -4.0250     0.9510 h1         1 5UH       0.028367
     28 H12          1.3270    -4.1210    -0.8020 h1         1 5UH       0.028367
     29 H13          2.7010    -3.9510     0.3030 h1         1 5UH       0.028367
     30 H14          2.3460    -0.3310     1.8300 ha         1 5UH       0.134500
     31 C5          -3.1340     0.6200    -0.8470 c3         1 5UH      -0.187100
@<TRIPOS>BOND
     1     1     2 ar  
     2     1    13 ar  
     3     1    14 1   
     4     2     3 ar  
     5     2    18 1   
     6     3    11 ar  
     7     3    19 1   
     8     4    10 1   
     9     5    10 1   
    10     6     7 ar  
    11     6    17 ar  
    12     6    20 1   
    13     7     8 ar  
    14     7    21 1   
    15     8     9 ar  
    16     8    22 1   
    17     9    16 ar  
    18     9    23 1   
    19    10    31 1   
    20    11    12 ar  
    21    11    31 1   
    22    12    13 ar  
    23    12    26 1   
    24    13    16 1   
    25    14    15 1   
    26    15    27 1   
    27    15    28 1   
    28    15    29 1   
    29    16    17 ar  
    30    17    30 1   
    31    24    31 1   
    32    25    31 1   
@<TRIPOS>SUBSTRUCTURE
     1 5UH         1 TEMP              0 ****  ****    0 ROOT
