@<TRIPOS>MOLECULE
5UH
   31    32     1     0     0
SMALL
No Charge or Current Charge


@<TRIPOS>ATOM
      1 C1           0.4720    -1.6180    -0.1180 ca         1 5UH       0.111100
      2 C2          -0.7450    -2.3200    -0.2560 ca         1 5UH      -0.199000
      3 C3          -1.9350    -1.6220    -0.5160 ca         1 5UH      -0.065000
      4 O1          -4.6510     0.1100     0.9070 o          1 5UH      -0.726500
      5 O2          -3.5670     1.9710     0.9180 o          1 5UH      -0.726500
      6 C11          3.8260     1.1510     1.1340 ca         1 5UH      -0.122000
      7 C12          4.1390     2.1350     0.1820 ca         1 5UH      -0.128000
      8 C13          3.2750     2.3580    -0.9020 ca         1 5UH      -0.122000
      9 C14          2.1010     1.5970    -1.0350 ca         1 5UH      -0.096000
     10 C6          -3.8990     0.9210     0.3870 c          1 5UH       0.724000
     11 C4          -1.9260    -0.2220    -0.6470 ca         1 5UH      -0.018300
     12 C7          -0.7110     0.4750    -0.5080 ca         1 5UH      -0.071000
     13 C8           0.5060    -0.2000    -0.2360 cp         1 5UH      -0.088000
     14 O            1.6710    -2.2700     0.1040 os         1 5UH      -0.350100
     15 C            1.7600    -3.7000     0.2280 c3         1 5UH       0.156900
     16 C9           1.7690     0.5920    -0.0920 cp         1 5UH       0.011000
     17 C10          2.6520     0.3900     0.9990 ca         1 5UH      -0.096000
     18 H1          -0.7880    -3.4010    -0.1690 ha         1 5UH       0.097000
     19 H2          -2.8680    -2.1720    -0.6190 ha         1 5UH       0.110000
     20 H4           4.4900     0.9800     1.9780 ha         1 5UH       0.099000
     21 H5           5.0470     2.7240     0.2860 ha         1 5UH       0.096000
     22 H6           3.5150     3.1210    -1.6400 ha         1 5UH       0.099000
     23 H7           1.4440     1.7780    -1.8820 ha         1 5UH       0.116500
     24 H8          -3.8680    -0.1420    -1.5070 hc         1 5UH       0.031200
     25 H9          -2.9490     1.4360    -1.4980 hc         1 5UH       0.031200
     26 H10         -0.7090     1.5580    -0.5970 ha         1 5UH       0.113000
     27 H11          1.1560    -4.0550     1.0730 h1         1 5UH       0.028367
     28 H12          1.4110    -4.1930    -0.6880 h1         1 5UH       0.028367
     29 H13          2.8000    -4.0010     0.4020 h1         1 5UH       0.028367
     30 H14          2.4160    -0.3580     1.7510 ha         1 5UH       0.116500
     31 C5          -3.2200     0.5340    -0.9360 c3         1 5UH      -0.187100
@<TRIPOS>BOND
     1     1     2 ar  
     2     1    13 ar  
     3     1    14 1   
     4     2     3 ar  
     5     2    18 1   
     6     3    11 ar  
     7     3    19 1   
     8     4    10 1   
     9     5    10 1   
    10     6     7 ar  
    11     6    17 ar  
    12     6    20 1   
    13     7     8 ar  
    14     7    21 1   
    15     8     9 ar  
    16     8    22 1   
    17     9    16 ar  
    18     9    23 1   
    19    10    31 1   
    20    11    12 ar  
    21    11    31 1   
    22    12    13 ar  
    23    12    26 1   
    24    13    16 1   
    25    14    15 1   
    26    15    27 1   
    27    15    28 1   
    28    15    29 1   
    29    16    17 ar  
    30    17    30 1   
    31    24    31 1   
    32    25    31 1   
@<TRIPOS>SUBSTRUCTURE
     1 5UH         1 TEMP              0 ****  ****    0 ROOT
