@<TRIPOS>MOLECULE
5UI
   43    45     1     0     0
SMALL
bcc


@<TRIPOS>ATOM
      1 C1          11.4960    62.7150    29.5660 c3         1 5UI      -0.104600
      2 C2          11.3440    64.0890    28.9360 c3         1 5UI       0.150100
      3 C3          10.2020    64.1330    27.9410 c3         1 5UI      -0.104600
      4 C5          12.0120    65.5510    30.7370 ca         1 5UI       0.149100
      5 C6          11.5930    66.4350    31.7350 ca         1 5UI      -0.168000
      6 C7          12.5150    66.9790    32.6100 ca         1 5UI      -0.108000
      7 C8          13.8630    66.6550    32.5170 ca         1 5UI      -0.160000
      8 C10         13.3630    65.2360    30.6320 ca         1 5UI      -0.172000
      9 C11         15.7130    65.4080    31.3930 cp         1 5UI       0.489800
     10 C12         16.5430    65.3010    32.5070 ca         1 5UI      -0.259300
     11 C13         17.8650    64.9310    32.3210 ca         1 5UI      -0.095000
     12 C14         18.3310    64.6740    31.0430 ca         1 5UI      -0.225300
     13 C15         17.4210    64.8180    30.0040 ca         1 5UI       0.554800
     14 N18         19.0580    65.1290    28.3500 nc         1 5UI      -0.548800
     15 C19         19.1830    64.9490    27.0570 cd         1 5UI       0.330200
     16 C21         17.8340    64.0800    25.0180 c          1 5UI       0.949200
     17 C24         17.2140    64.1490    27.5750 cc         1 5UI      -0.196600
     18 C25         15.9350    63.3810    27.6160 c3         1 5UI       0.767200
     19 O4          11.0490    65.0780    29.9270 os         1 5UI      -0.339900
     20 C9          14.2880    65.7790    31.5240 cp         1 5UI      -0.103500
     21 N16         16.1660    65.1720    30.1620 nb         1 5UI      -0.681000
     22 N17         17.8620    64.6380    28.6720 na         1 5UI       0.046600
     23 C20         18.0420    64.3450    26.4940 cd         1 5UI      -0.211900
     24 O22         16.6660    64.1400    24.6000 o          1 5UI      -0.807300
     25 O23         18.8760    63.8710    24.3720 o          1 5UI      -0.807300
     26 F26         15.9380    62.4090    26.7030 f          1 5UI      -0.235967
     27 F27         15.7450    62.7790    28.7960 f          1 5UI      -0.235967
     28 F28         14.8610    64.1420    27.3770 f          1 5UI      -0.235967
     29 H31         12.3080    62.6730    30.2910 hc         1 5UI       0.043867
     30 H29         10.5740    62.4170    30.0680 hc         1 5UI       0.043867
     31 H30         11.7110    61.9770    28.7920 hc         1 5UI       0.043867
     32 H32         12.2670    64.3610    28.4130 h1         1 5UI       0.070700
     33 H33         10.1100    65.1190    27.4840 hc         1 5UI       0.043867
     34 H34         10.3810    63.4110    27.1450 hc         1 5UI       0.043867
     35 H35          9.2530    63.8810    28.4170 hc         1 5UI       0.043867
     36 H36         10.5430    66.6890    31.8160 ha         1 5UI       0.135000
     37 H37         12.1810    67.6700    33.3730 ha         1 5UI       0.122000
     38 H38         14.5710    67.1050    33.2010 ha         1 5UI       0.127000
     39 H39         13.7240    64.5550    29.8750 ha         1 5UI       0.167000
     40 H40         16.1620    65.4810    33.5020 ha         1 5UI       0.136000
     41 H41         18.5270    64.8270    33.1700 ha         1 5UI       0.130000
     42 H42         19.3520    64.3710    30.8610 ha         1 5UI       0.165000
     43 H43         20.0770    65.2720    26.5460 h4         1 5UI       0.045100
@<TRIPOS>BOND
     1     1     2 1   
     2     1    29 1   
     3     1    30 1   
     4     1    31 1   
     5     2     3 1   
     6     2    19 1   
     7     2    32 1   
     8     3    33 1   
     9     3    34 1   
    10     3    35 1   
    11     4     5 ar  
    12     4     8 ar  
    13     4    19 1   
    14     5     6 ar  
    15     5    36 1   
    16     6     7 ar  
    17     6    37 1   
    18     7    20 ar  
    19     7    38 1   
    20     8    20 ar  
    21     8    39 1   
    22     9    10 ar  
    23     9    20 1   
    24     9    21 ar  
    25    10    11 ar  
    26    10    40 1   
    27    11    12 ar  
    28    11    41 1   
    29    12    13 ar  
    30    12    42 1   
    31    13    21 ar  
    32    13    22 1   
    33    14    15 2   
    34    14    22 1   
    35    15    23 1   
    36    15    43 1   
    37    16    23 1   
    38    16    24 1   
    39    16    25 1   
    40    17    18 1   
    41    17    22 1   
    42    17    23 2   
    43    18    26 1   
    44    18    27 1   
    45    18    28 1   
@<TRIPOS>SUBSTRUCTURE
     1 5UI         1 TEMP              0 ****  ****    0 ROOT
