@<TRIPOS>MOLECULE
5UI
   43    45     1     0     0
SMALL
No Charge or Current Charge


@<TRIPOS>ATOM
      1 C1          11.2560    63.1280    29.1630 c3         1 5UI      -0.104600
      2 C2          11.0760    64.6140    28.7750 c3         1 5UI       0.173300
      3 C3           9.8410    64.8320    27.8810 c3         1 5UI      -0.104600
      4 C5          11.8460    65.6620    30.9000 ca         1 5UI       0.149100
      5 C6          11.4510    66.2420    32.1140 ca         1 5UI      -0.150000
      6 C7          12.4060    66.5590    33.0910 ca         1 5UI      -0.090000
      7 C8          13.7660    66.2970    32.8570 ca         1 5UI      -0.142000
      8 C10         13.2150    65.4100    30.6630 ca         1 5UI      -0.154000
      9 C11         15.6690    65.4290    31.3830 cp         1 5UI       0.424500
     10 C12         16.6040    65.2510    32.4320 ca         1 5UI      -0.176000
     11 C13         17.9420    64.9650    32.1330 ca         1 5UI      -0.077000
     12 C14         18.3050    64.8560    30.7840 ca         1 5UI      -0.142000
     13 C15         17.3380    65.0320    29.7720 ca         1 5UI       0.489500
     14 N18         18.4550    65.9440    27.8420 nc         1 5UI      -0.548800
     15 C19         18.6620    65.4660    26.6300 cd         1 5UI       0.264900
     16 C21         18.2410    63.4060    25.1590 c          1 5UI       0.738600
     17 C24         17.5920    63.7570    27.6460 cc         1 5UI      -0.247300
     18 C25         16.9190    62.4480    28.0500 c3         1 5UI       0.403300
     19 O4          10.8550    65.3810    29.9760 os         1 5UI      -0.363100
     20 C9          14.2080    65.7140    31.6390 cp         1 5UI      -0.103500
     21 N16         16.0480    65.3200    30.0910 nb         1 5UI      -0.681000
     22 N17         17.7930    64.8930    28.4440 na         1 5UI       0.097300
     23 C20         18.1560    64.1590    26.4440 cd         1 5UI      -0.146600
     24 O22         17.7500    62.2910    25.0680 o          1 5UI      -0.702000
     25 O23         18.8010    63.9520    24.2190 o          1 5UI      -0.702000
     26 F26         17.7130    61.3840    27.7950 f          1 5UI      -0.114667
     27 F27         16.6160    62.3780    29.3660 f          1 5UI      -0.114667
     28 F28         15.7610    62.2620    27.3760 f          1 5UI      -0.114667
     29 H31         12.1520    62.9800    29.7760 hc         1 5UI       0.043867
     30 H29         10.3880    62.7660    29.7270 hc         1 5UI       0.043867
     31 H30         11.3610    62.5100    28.2630 hc         1 5UI       0.043867
     32 H32         11.9580    64.9720    28.2270 h1         1 5UI       0.070700
     33 H33          9.7310    65.8940    27.6300 hc         1 5UI       0.043867
     34 H34          9.9410    64.2710    26.9440 hc         1 5UI       0.043867
     35 H35          8.9270    64.4980    28.3870 hc         1 5UI       0.043867
     36 H36         10.4000    66.4460    32.2980 ha         1 5UI       0.117000
     37 H37         12.0930    67.0110    34.0300 ha         1 5UI       0.104000
     38 H38         14.4810    66.5700    33.6290 ha         1 5UI       0.109000
     39 H39         13.5300    64.9700    29.7230 ha         1 5UI       0.149000
     40 H40         16.2920    65.3150    33.4690 ha         1 5UI       0.118000
     41 H41         18.6750    64.8230    32.9250 ha         1 5UI       0.112000
     42 H42         19.3330    64.6300    30.5130 ha         1 5UI       0.147000
     43 H43         19.1710    66.0870    25.9040 h4         1 5UI       0.045100
@<TRIPOS>BOND
     1     1     2 1   
     2     1    29 1   
     3     1    30 1   
     4     1    31 1   
     5     2     3 1   
     6     2    19 1   
     7     2    32 1   
     8     3    33 1   
     9     3    34 1   
    10     3    35 1   
    11     4     5 ar  
    12     4     8 ar  
    13     4    19 1   
    14     5     6 ar  
    15     5    36 1   
    16     6     7 ar  
    17     6    37 1   
    18     7    20 ar  
    19     7    38 1   
    20     8    20 ar  
    21     8    39 1   
    22     9    10 ar  
    23     9    20 1   
    24     9    21 ar  
    25    10    11 ar  
    26    10    40 1   
    27    11    12 ar  
    28    11    41 1   
    29    12    13 ar  
    30    12    42 1   
    31    13    21 ar  
    32    13    22 1   
    33    14    15 2   
    34    14    22 1   
    35    15    23 1   
    36    15    43 1   
    37    16    23 1   
    38    16    24 1   
    39    16    25 1   
    40    17    18 1   
    41    17    22 1   
    42    17    23 2   
    43    18    26 1   
    44    18    27 1   
    45    18    28 1   
@<TRIPOS>SUBSTRUCTURE
     1 5UI         1 TEMP              0 ****  ****    0 ROOT
