@<TRIPOS>MOLECULE
5UJ
   54    58     1     0     0
SMALL
bcc


@<TRIPOS>ATOM
      1 C4           7.9590    -1.1050    -0.2990 ca         1 5UJ       0.034900
      2 C5           8.3770     0.2150    -0.3010 ca         1 5UJ      -0.119000
      3 C6           4.1870    -0.8120    -0.1420 c6         1 5UJ      -0.020400
      4 C3           6.6170    -1.4480    -0.2470 ca         1 5UJ      -0.119500
      5 C2           5.6490    -0.4510    -0.1970 ca         1 5UJ      -0.053300
      6 C1           6.0510     0.8840    -0.1990 ca         1 5UJ      -0.119500
      7 C            7.3980     1.1950    -0.2500 ca         1 5UJ       0.034900
      8 C20         -8.9980    -0.5500    -0.8370 c          1 5UJ       0.715100
      9 C17         -7.9310     0.3680    -0.4240 ca         1 5UJ      -0.166600
     10 C16         -8.1570     1.7410    -0.3670 ca         1 5UJ      -0.182300
     11 C15         -7.1070     2.5510    -0.0030 ca         1 5UJ       0.403200
     12 N3          -5.9110     2.0700     0.3440 nb         1 5UJ      -0.672000
     13 N5          -8.5790    -1.8570    -0.8950 ns         1 5UJ      -0.494400
     14 C19         -7.3110    -2.2570    -0.6220 cc         1 5UJ       0.501800
     15 N4          -6.3650    -1.4840    -0.2400 nd         1 5UJ      -0.579100
     16 C18         -6.6720    -0.1550    -0.1110 ca         1 5UJ       0.084100
     17 C14         -5.6990     0.7790     0.3120 ca         1 5UJ       0.542800
     18 N1          -4.4160     0.3650     0.6990 na         1 5UJ       0.059600
     19 C12         -3.2520     1.0060     0.4150 cc         1 5UJ      -0.095300
     20 N2          -4.2330    -0.6840     1.5070 nc         1 5UJ      -0.480800
     21 C13         -2.9390    -0.7210     1.7250 cd         1 5UJ       0.309200
     22 C11         -2.2540     0.3230     1.0580 cd         1 5UJ      -0.269600
     23 C10         -0.7840     0.5790     1.0300 c3         1 5UJ       0.007900
     24 N            1.3590    -0.1150    -0.0170 n3         1 5UJ      -0.722600
     25 C8           1.9390    -0.6330    -1.2440 c6         1 5UJ       0.167800
     26 C7           3.4140    -0.2820    -1.3500 c6         1 5UJ      -0.070400
     27 C21          2.0350    -0.6720     1.1420 c6         1 5UJ       0.167800
     28 C22          3.5150    -0.3230     1.1410 c6         1 5UJ      -0.070400
     29 CL1          9.1510    -2.3600    -0.3630 cl         1 5UJ      -0.104400
     30 CL           7.8830     2.8580    -0.2510 cl         1 5UJ      -0.104400
     31 H1           9.4270     0.4710    -0.3420 ha         1 5UJ       0.163000
     32 H2           4.1130    -1.9060    -0.1570 hc         1 5UJ       0.051700
     33 H3           6.3220    -2.4890    -0.2460 ha         1 5UJ       0.151500
     34 H4           5.3190     1.6800    -0.1620 ha         1 5UJ       0.151500
     35 H6          -7.2200     3.6270     0.0310 h4         1 5UJ       0.034100
     36 H7          -9.2540    -2.5570    -1.1770 hn         1 5UJ       0.336500
     37 H8          -7.1270    -3.3160    -0.7520 h5         1 5UJ       0.054800
     38 H9          -3.2220     1.8740    -0.2230 h4         1 5UJ       0.183000
     39 H10         -2.5170    -1.4840     2.3640 h4         1 5UJ       0.038100
     40 H11         -0.5880     1.6200     0.7640 hc         1 5UJ       0.052700
     41 H12         -0.3800     0.4290     2.0330 hc         1 5UJ       0.052700
     42 H16          1.8200    -1.7290    -1.3190 h1         1 5UJ       0.031700
     43 H17          1.4040    -0.2010    -2.0940 h1         1 5UJ       0.031700
     44 H18          3.5210     0.8050    -1.4160 hc         1 5UJ       0.051450
     45 H19          3.8210    -0.7000    -2.2730 hc         1 5UJ       0.051450
     46 H20          1.5820    -0.2800     2.0540 h1         1 5UJ       0.031700
     47 H21          1.9170    -1.7710     1.1820 h1         1 5UJ       0.031700
     48 H22          3.9940    -0.7720     2.0140 hc         1 5UJ       0.051450
     49 H23          3.6270     0.7610     1.2350 hc         1 5UJ       0.051450
     50 C9          -0.0750    -0.3310     0.0260 c3         1 5UJ       0.168800
     51 H5          -9.1220     2.1600    -0.6140 ha         1 5UJ       0.169000
     52 O          -10.1350    -0.2190    -1.1060 o          1 5UJ      -0.594500
     53 H13         -0.3240    -1.3840     0.2440 h1         1 5UJ       0.033700
     54 H14         -0.4820    -0.1180    -0.9660 h1         1 5UJ       0.033700
@<TRIPOS>BOND
     1     1     2 ar  
     2     1     4 ar  
     3     1    29 1   
     4     2     7 ar  
     5     2    31 1   
     6     3     5 1   
     7     3    26 1   
     8     3    28 1   
     9     3    32 1   
    10     4     5 ar  
    11     4    33 1   
    12     5     6 ar  
    13     6     7 ar  
    14     6    34 1   
    15     7    30 1   
    16     8     9 1   
    17     8    13 1   
    18     8    52 2   
    19     9    10 ar  
    20     9    16 ar  
    21    10    11 ar  
    22    10    51 1   
    23    11    12 ar  
    24    11    35 1   
    25    12    17 ar  
    26    13    14 1   
    27    13    36 1   
    28    14    15 2   
    29    14    37 1   
    30    15    16 1   
    31    16    17 ar  
    32    17    18 1   
    33    18    19 1   
    34    18    20 1   
    35    19    22 2   
    36    19    38 1   
    37    20    21 2   
    38    21    22 1   
    39    21    39 1   
    40    22    23 1   
    41    23    40 1   
    42    23    41 1   
    43    23    50 1   
    44    24    25 1   
    45    24    27 1   
    46    24    50 1   
    47    25    26 1   
    48    25    42 1   
    49    25    43 1   
    50    26    44 1   
    51    26    45 1   
    52    27    28 1   
    53    27    46 1   
    54    27    47 1   
    55    28    48 1   
    56    28    49 1   
    57    50    53 1   
    58    50    54 1   
@<TRIPOS>SUBSTRUCTURE
     1 5UJ         1 TEMP              0 ****  ****    0 ROOT
