@<TRIPOS>MOLECULE
5UJ
   54    58     1     0     0
SMALL
No Charge or Current Charge


@<TRIPOS>ATOM
      1 C4           7.9310    -1.1030    -0.3240 ca         1 5UJ       0.126500
      2 C5           8.1960     0.0070    -1.1410 ca         1 5UJ      -0.101000
      3 C6           4.1190    -0.8600     0.1460 c6         1 5UJ      -0.020400
      4 C3           6.6180    -1.3810     0.0900 ca         1 5UJ      -0.101500
      5 C2           5.5520    -0.5490    -0.3110 ca         1 5UJ      -0.053300
      6 C1           5.8260     0.5650    -1.1330 ca         1 5UJ      -0.101500
      7 C            7.1410     0.8390    -1.5440 ca         1 5UJ       0.126500
      8 C20         -8.2150    -0.0760    -1.9860 c          1 5UJ       0.572600
      9 C17         -7.6900     0.4550    -0.7030 ca         1 5UJ      -0.166600
     10 C16         -8.4850     1.2690     0.1270 ca         1 5UJ      -0.099000
     11 C15         -7.9510     1.7500     1.3270 ca         1 5UJ       0.337900
     12 N3          -6.6970     1.4680     1.7340 nb         1 5UJ      -0.672000
     13 N5          -7.3300    -0.8380    -2.6630 ns         1 5UJ      -0.427400
     14 C19         -6.0590    -1.1180    -2.2390 cc         1 5UJ       0.501800
     15 N4          -5.5190    -0.6770    -1.1020 nd         1 5UJ      -0.579100
     16 C18         -6.3700     0.1410    -0.3040 ca         1 5UJ       0.149400
     17 C14         -5.9030     0.6770     0.9500 ca         1 5UJ       0.477500
     18 N1          -4.5840     0.3650     1.3340 na         1 5UJ       0.110300
     19 C12         -3.4670     0.9630     0.7650 cc         1 5UJ      -0.128000
     20 N2          -4.3330    -0.5350     2.3530 nc         1 5UJ      -0.480800
     21 C13         -3.0140    -0.5040     2.4000 cd         1 5UJ       0.243900
     22 C11         -2.4340     0.3880     1.4570 cd         1 5UJ      -0.204300
     23 C10         -0.9600     0.6420     1.2720 c3         1 5UJ       0.007900
     24 N            1.1900    -0.3290     0.2670 n3         1 5UJ      -0.722600
     25 C8           1.7360    -1.4450    -0.5560 c6         1 5UJ       0.167800
     26 C7           3.1730    -1.1490    -1.0470 c6         1 5UJ      -0.070400
     27 C21          2.0690    -0.0510     1.4420 c6         1 5UJ       0.167800
     28 C22          3.5190     0.2780     1.0080 c6         1 5UJ      -0.070400
     29 Cl1          9.2500    -2.1500     0.1840 cl         1 5UJ      -0.196000
     30 Cl           7.4660     2.2310    -2.5680 cl         1 5UJ      -0.196000
     31 H1           9.2120     0.2200    -1.4600 ha         1 5UJ       0.145000
     32 H2           4.1450    -1.7650     0.7700 hc         1 5UJ       0.051700
     33 H3           6.4320    -2.2450     0.7230 ha         1 5UJ       0.133500
     34 H4           5.0230     1.2220    -1.4560 ha         1 5UJ       0.133500
     35 H6          -8.5470     2.3820     1.9850 h4         1 5UJ       0.034100
     36 H7          -7.6480    -1.2200    -3.5420 hn         1 5UJ       0.336500
     37 H8          -5.5180    -1.7480    -2.9340 h5         1 5UJ       0.054800
     38 H9          -3.5060     1.6930    -0.0340 h4         1 5UJ       0.165000
     39 H10         -2.4990    -1.1290     3.1190 h4         1 5UJ       0.038100
     40 H11         -0.8080     1.5250     0.6400 hc         1 5UJ       0.052700
     41 H12         -0.5100     0.8700     2.2450 hc         1 5UJ       0.052700
     42 H16          1.7400    -2.3790     0.0260 h1         1 5UJ       0.031700
     43 H17          1.0970    -1.6160    -1.4350 h1         1 5UJ       0.031700
     44 H18          3.1490    -0.2940    -1.7340 hc         1 5UJ       0.051450
     45 H19          3.5490    -2.0050    -1.6240 hc         1 5UJ       0.051450
     46 H20          1.6910     0.8040     2.0200 h1         1 5UJ       0.031700
     47 H21          2.0840    -0.9180     2.1190 h1         1 5UJ       0.031700
     48 H22          4.1410     0.4410     1.8990 hc         1 5UJ       0.051450
     49 H23          3.5190     1.2230     0.4490 hc         1 5UJ       0.051450
     50 C9          -0.2330    -0.5630     0.6300 c3         1 5UJ       0.168800
     51 H5          -9.5040     1.5310    -0.1470 ha         1 5UJ       0.151000
     52 O           -9.3390     0.1430    -2.4090 o          1 5UJ      -0.519000
     53 H13         -0.3080    -1.4220     1.3110 h1         1 5UJ       0.033700
     54 H14         -0.7920    -0.8300    -0.2780 h1         1 5UJ       0.033700
@<TRIPOS>BOND
     1     1     2 ar  
     2     1     4 ar  
     3     1    29 1   
     4     2     7 ar  
     5     2    31 1   
     6     3     5 1   
     7     3    26 1   
     8     3    28 1   
     9     3    32 1   
    10     4     5 ar  
    11     4    33 1   
    12     5     6 ar  
    13     6     7 ar  
    14     6    34 1   
    15     7    30 1   
    16     8     9 1   
    17     8    13 1   
    18     8    52 2   
    19     9    10 ar  
    20     9    16 ar  
    21    10    11 ar  
    22    10    51 1   
    23    11    12 ar  
    24    11    35 1   
    25    12    17 ar  
    26    13    14 1   
    27    13    36 1   
    28    14    15 2   
    29    14    37 1   
    30    15    16 1   
    31    16    17 ar  
    32    17    18 1   
    33    18    19 1   
    34    18    20 1   
    35    19    22 2   
    36    19    38 1   
    37    20    21 2   
    38    21    22 1   
    39    21    39 1   
    40    22    23 1   
    41    23    40 1   
    42    23    41 1   
    43    23    50 1   
    44    24    25 1   
    45    24    27 1   
    46    24    50 1   
    47    25    26 1   
    48    25    42 1   
    49    25    43 1   
    50    26    44 1   
    51    26    45 1   
    52    27    28 1   
    53    27    46 1   
    54    27    47 1   
    55    28    48 1   
    56    28    49 1   
    57    50    53 1   
    58    50    54 1   
@<TRIPOS>SUBSTRUCTURE
     1 5UJ         1 TEMP              0 ****  ****    0 ROOT
