@<TRIPOS>MOLECULE
5UK
   21    20     1     0     0
SMALL
abcg2


@<TRIPOS>ATOM
      1 OAC         -3.9170    -0.4290     0.1080 o          1 5UK      -0.740000
      2 CAJ         -2.8440    -0.1610    -0.4660 c          1 5UK       0.610700
      3 OAE         -2.6880     0.5000    -1.5070 o          1 5UK      -0.740000
      4 CAL         -1.5780    -0.7670     0.1680 ce         1 5UK       0.403300
      5 NAA         -1.6400    -1.7460     0.9710 n2         1 5UK      -0.867100
      6 CAN         -0.2530    -0.1650    -0.1930 c3         1 5UK      -0.244000
      7 CAK         -0.0060     1.0800     0.6940 c          1 5UK       0.732000
      8 OAF         -1.0100     1.6830     1.1150 o          1 5UK      -0.744000
      9 OAD          1.1880     1.3750     0.9060 o          1 5UK      -0.744000
     10 CAI          0.9120    -1.1370    -0.0870 c3         1 5UK      -0.121400
     11 CAM          2.1990    -0.5470    -0.6050 c          1 5UK       0.625100
     12 CAH          3.4020    -0.7870     0.2670 c3         1 5UK       0.040600
     13 OAB          4.5460    -0.2300    -0.3130 oh         1 5UK      -0.637000
     14 OAG          2.2880    -0.0140    -1.6890 o          1 5UK      -0.548100
     15 H2          -2.6230    -1.9770     1.1160 hn         1 5UK       0.356400
     16 H3          -0.3190     0.1940    -1.2240 hc         1 5UK       0.084700
     17 H5           1.0380    -1.4870     0.9390 hc         1 5UK       0.032700
     18 H6           0.7090    -2.0300    -0.6900 hc         1 5UK       0.032700
     19 H7           3.1760    -0.3750     1.2580 h1         1 5UK       0.032700
     20 H8           3.4840    -1.8770     0.4010 h1         1 5UK       0.032700
     21 H9           5.2850    -0.3940     0.2800 ho         1 5UK       0.403000
@<TRIPOS>BOND
     1     1     2 1   
     2     2     3 1   
     3     2     4 1   
     4     4     5 2   
     5     4     6 1   
     6     5    15 1   
     7     6     7 1   
     8     6    10 1   
     9     6    16 1   
    10     7     8 1   
    11     7     9 1   
    12    10    11 1   
    13    10    17 1   
    14    10    18 1   
    15    11    12 1   
    16    11    14 2   
    17    12    13 1   
    18    12    19 1   
    19    12    20 1   
    20    13    21 1   
@<TRIPOS>SUBSTRUCTURE
     1 5UK         1 TEMP              0 ****  ****    0 ROOT
