@<TRIPOS>MOLECULE
5UK
   21    20     1     0     0
SMALL
No Charge or Current Charge


@<TRIPOS>ATOM
      1 OAC         -3.9690    -0.5290     0.3220 o          1 5UK      -0.740000
      2 CAJ         -2.8840    -0.0500    -0.0010 c          1 5UK       0.610700
      3 OAE         -2.8120     1.0610    -0.5170 o          1 5UK      -0.740000
      4 CAL         -1.5890    -0.8900     0.2380 ce         1 5UK       0.403300
      5 NAA         -1.6900    -2.1090     0.7120 n2         1 5UK      -0.867100
      6 CAN         -0.2430    -0.3050    -0.1870 c3         1 5UK      -0.244000
      7 CAK          0.1110     0.8430     0.7580 c          1 5UK       0.732000
      8 OAF          0.3060     1.9470     0.2750 o          1 5UK      -0.744000
      9 OAD          0.2420     0.5990     1.9460 o          1 5UK      -0.744000
     10 CAI          0.9300    -1.3390    -0.2960 c3         1 5UK      -0.121400
     11 CAM          2.2200    -0.7120    -0.8650 c          1 5UK       0.625100
     12 CAH          3.3520    -0.4150     0.1710 c3         1 5UK       0.040600
     13 OAB          4.6280    -0.0520    -0.4170 oh         1 5UK      -0.637000
     14 OAG          2.3390    -0.4880    -2.0680 o          1 5UK      -0.548100
     15 H2          -2.6920    -2.2890     0.8880 hn         1 5UK       0.356400
     16 H3          -0.3630     0.1300    -1.1860 hc         1 5UK       0.084700
     17 H5           1.1310    -1.7430     0.7030 hc         1 5UK       0.032700
     18 H6           0.6170    -2.1480    -0.9680 hc         1 5UK       0.032700
     19 H7           2.9930     0.3890     0.8270 h1         1 5UK       0.032700
     20 H8           3.4690    -1.3110     0.7940 h1         1 5UK       0.032700
     21 H9           5.2550     0.1200     0.3210 ho         1 5UK       0.403000
@<TRIPOS>BOND
     1     1     2 1   
     2     2     3 1   
     3     2     4 1   
     4     4     5 2   
     5     4     6 1   
     6     5    15 1   
     7     6     7 1   
     8     6    10 1   
     9     6    16 1   
    10     7     8 1   
    11     7     9 1   
    12    10    11 1   
    13    10    17 1   
    14    10    18 1   
    15    11    12 1   
    16    11    14 2   
    17    12    13 1   
    18    12    19 1   
    19    12    20 1   
    20    13    21 1   
@<TRIPOS>SUBSTRUCTURE
     1 5UK         1 TEMP              0 ****  ****    0 ROOT
