@<TRIPOS>MOLECULE
5UL
   57    61     1     0     0
SMALL
No Charge or Current Charge


@<TRIPOS>ATOM
      1 C1          -8.0950     0.9570    -0.1030 ca         1 5UL      -0.102000
      2 C2          -7.3030    -0.1560    -0.4350 ca         1 5UL      -0.101000
      3 N3           5.9600     1.2490    -2.0920 nb         1 5UL      -0.670000
      4 C4          -5.8160    -2.1170     0.2230 c3         1 5UL      -0.029100
      5 C7          -1.9470    -2.8790     0.2720 c6         1 5UL       0.170300
      6 C9           0.5900    -0.6570    -1.6240 c3         1 5UL       0.006900
      7 C10          2.0960    -0.6670    -1.6270 cc         1 5UL      -0.202300
      8 C11          2.9680     0.2820    -1.1760 cd         1 5UL      -0.132000
      9 C12          2.8870    -1.7220    -2.1390 cc         1 5UL       0.245900
     10 C13          5.3460     0.4990    -1.1270 ca         1 5UL       0.477500
     11 C14          7.0380     1.9900    -1.7610 ca         1 5UL       0.336900
     12 C16          6.9480     1.2680     0.5500 ca         1 5UL      -0.167600
     13 C17          5.8170     0.4800     0.2340 ca         1 5UL       0.149400
     14 C18          5.6780    -0.2490     2.4410 cc         1 5UL       0.501800
     15 C20         -2.2420    -0.5190    -0.3440 c6         1 5UL       0.170300
     16 C23         -7.6560     0.5670     2.2580 ca         1 5UL      -0.102000
     17 C19          7.4690     1.2800     1.9400 c          1 5UL       0.572600
     18 C15          7.5610     2.0290    -0.4640 ca         1 5UL      -0.098000
     19 N5           6.7700     0.4990     2.7900 ns         1 5UL      -0.427400
     20 N4           5.1530    -0.3090     1.2160 nd         1 5UL      -0.579100
     21 N1           4.2180    -0.2870    -1.4310 na         1 5UL       0.111300
     22 N2           4.1880    -1.5280    -2.0550 nd         1 5UL      -0.482800
     23 N           -1.4870    -1.7770    -0.6190 n3         1 5UL      -0.723600
     24 C6          -3.4640    -3.1460     0.1220 c6         1 5UL      -0.073900
     25 C21         -3.7700    -0.7170    -0.5040 c6         1 5UL      -0.073900
     26 C5          -4.2900    -1.8650     0.4010 c6         1 5UL      -0.058700
     27 C3          -6.6830    -0.9140     0.5790 ca         1 5UL      -0.071300
     28 C22         -6.8640    -0.5470     1.9270 ca         1 5UL      -0.101000
     29 C           -8.2710     1.3170     1.2430 ca         1 5UL       0.117000
     30 Cl          -9.2610     2.7110     1.6580 cl         1 5UL      -0.208000
     31 H1          -8.5710     1.5410    -0.8870 ha         1 5UL       0.128500
     32 H2          -7.1690    -0.4260    -1.4800 ha         1 5UL       0.116500
     33 H3          -6.0180    -2.4320    -0.8090 hc         1 5UL       0.049700
     34 H4          -6.1190    -2.9660     0.8490 hc         1 5UL       0.049700
     35 H5          -1.4050    -3.8070     0.0390 h1         1 5UL       0.029950
     36 H6          -1.7280    -2.6330     1.3230 h1         1 5UL       0.029950
     37 H7           0.2380     0.3650    -1.4450 hc         1 5UL       0.053200
     38 H8           0.2190    -0.9500    -2.6140 hc         1 5UL       0.053200
     39 H9           2.8180     1.2530    -0.7170 h4         1 5UL       0.163000
     40 H10          2.5310    -2.6410    -2.5860 h4         1 5UL       0.040100
     41 H11          7.4940     2.5700    -2.5620 h4         1 5UL       0.033100
     42 H12          5.2680    -0.8020     3.2770 h5         1 5UL       0.054800
     43 H13         -2.0310    -0.1650     0.6760 h1         1 5UL       0.029950
     44 H14         -1.9350     0.2800    -1.0340 h1         1 5UL       0.029950
     45 H15         -7.7930     0.8480     3.2990 ha         1 5UL       0.128500
     46 H16          8.4320     2.6470    -0.2590 ha         1 5UL       0.151000
     47 H17          7.0920     0.4780     3.7470 hn         1 5UL       0.336500
     48 H21         -3.6690    -3.5140    -0.8930 hc         1 5UL       0.047700
     49 H22         -3.7630    -3.9470     0.8120 hc         1 5UL       0.047700
     50 H23         -4.2810     0.2230    -0.2590 hc         1 5UL       0.047700
     51 H24         -4.0000    -0.9350    -1.5560 hc         1 5UL       0.047700
     52 H25         -4.1380    -1.5780     1.4520 hc         1 5UL       0.045700
     53 H26         -6.3900    -1.1240     2.7180 ha         1 5UL       0.116500
     54 C8          -0.0110    -1.6090    -0.5610 c3         1 5UL       0.169800
     55 O            8.4380     1.9280     2.3020 o          1 5UL      -0.519000
     56 H18          0.4630    -2.5910    -0.7020 h1         1 5UL       0.031700
     57 H19          0.2880    -1.2530     0.4340 h1         1 5UL       0.031700
@<TRIPOS>BOND
     1     1     2 ar  
     2     1    29 ar  
     3     1    31 1   
     4     2    27 ar  
     5     2    32 1   
     6     3    10 ar  
     7     3    11 ar  
     8     4    26 1   
     9     4    27 1   
    10     4    33 1   
    11     4    34 1   
    12     5    23 1   
    13     5    24 1   
    14     5    35 1   
    15     5    36 1   
    16     6     7 1   
    17     6    37 1   
    18     6    38 1   
    19     6    54 1   
    20     7     8 2   
    21     7     9 1   
    22     8    21 1   
    23     8    39 1   
    24     9    22 2   
    25     9    40 1   
    26    10    13 ar  
    27    10    21 1   
    28    11    18 ar  
    29    11    41 1   
    30    12    13 ar  
    31    12    17 1   
    32    12    18 ar  
    33    13    20 1   
    34    14    19 1   
    35    14    20 2   
    36    14    42 1   
    37    15    23 1   
    38    15    25 1   
    39    15    43 1   
    40    15    44 1   
    41    16    28 ar  
    42    16    29 ar  
    43    16    45 1   
    44    17    19 1   
    45    17    55 2   
    46    18    46 1   
    47    19    47 1   
    48    21    22 1   
    49    23    54 1   
    50    24    26 1   
    51    24    48 1   
    52    24    49 1   
    53    25    26 1   
    54    25    50 1   
    55    25    51 1   
    56    26    52 1   
    57    27    28 ar  
    58    28    53 1   
    59    29    30 1   
    60    54    56 1   
    61    54    57 1   
@<TRIPOS>SUBSTRUCTURE
     1 5UL         1 TEMP              0 ****  ****    0 ROOT
