@<TRIPOS>MOLECULE
5UL
   57    61     1     0     0
SMALL
bcc


@<TRIPOS>ATOM
      1 C1          -8.2770     0.5120    -0.8800 ca         1 5UL      -0.120000
      2 C2          -7.3870    -0.5530    -0.8480 ca         1 5UL      -0.119000
      3 N3           5.0960     2.0200    -1.0280 nb         1 5UL      -0.670000
      4 C4          -5.8320    -2.1210     0.3790 c3         1 5UL      -0.029100
      5 C7          -2.0080    -2.3820     0.9390 c6         1 5UL       0.170300
      6 C9           0.4180    -0.6710    -1.3710 c3         1 5UL       0.006900
      7 C10          1.9060    -0.5880    -1.2970 cc         1 5UL      -0.267600
      8 C11          2.6870     0.4470    -0.8540 cd         1 5UL      -0.099300
      9 C12          2.8400    -1.6030    -1.6100 cc         1 5UL       0.311200
     10 C13          5.1120     0.7820    -0.6060 ca         1 5UL       0.542800
     11 C14          6.1430     2.8120    -0.7870 ca         1 5UL       0.402200
     12 C16          7.2860     1.0660     0.3410 ca         1 5UL      -0.167600
     13 C17          6.1820     0.2310     0.1380 ca         1 5UL       0.084100
     14 C18          7.1140    -1.4500     1.3180 cc         1 5UL       0.501800
     15 C20         -2.4220    -0.3730    -0.2880 c6         1 5UL       0.170300
     16 C23         -8.0610     0.7370     1.5110 ca         1 5UL      -0.120000
     17 C19          8.4410     0.5480     1.0810 c          1 5UL       0.715100
     18 C15          7.2710     2.3770    -0.1310 ca         1 5UL      -0.181300
     19 N5           8.2510    -0.7380     1.5260 ns         1 5UL      -0.494400
     20 N4           6.0990    -1.0340     0.6570 nd         1 5UL      -0.579100
     21 N1           3.9750     0.0180    -0.9050 na         1 5UL       0.060600
     22 N2           4.0770    -1.2270    -1.3770 nd         1 5UL      -0.482800
     23 N           -1.5800    -1.5500    -0.1720 n3         1 5UL      -0.723600
     24 C6          -3.4470    -2.8390     0.7650 c6         1 5UL      -0.073900
     25 C21         -3.8800    -0.7530    -0.5060 c6         1 5UL      -0.073900
     26 C5          -4.3920    -1.6520     0.6130 c6         1 5UL      -0.058700
     27 C3          -6.8220    -0.9920     0.3460 ca         1 5UL      -0.071300
     28 C22         -7.1770    -0.3310     1.5210 ca         1 5UL      -0.119000
     29 C           -8.6050     1.1500     0.3050 ca         1 5UL       0.025400
     30 CL          -9.7160     2.4830     0.2810 cl         1 5UL      -0.116400
     31 H1          -8.7060     0.8370    -1.8180 ha         1 5UL       0.146500
     32 H2          -7.1330    -1.0500    -1.7760 ha         1 5UL       0.134500
     33 H3          -5.8760    -2.6840    -0.5580 hc         1 5UL       0.049700
     34 H4          -6.1030    -2.8220     1.1730 hc         1 5UL       0.049700
     35 H5          -1.3500    -3.2530     0.9950 h1         1 5UL       0.029950
     36 H6          -1.9120    -1.8510     1.9040 h1         1 5UL       0.029950
     37 H7           0.0070     0.3150    -1.5930 hc         1 5UL       0.053200
     38 H8           0.1260    -1.3270    -2.1940 hc         1 5UL       0.053200
     39 H9           2.4290     1.4310    -0.4990 h4         1 5UL       0.181000
     40 H10          2.6360    -2.5850    -2.0130 h4         1 5UL       0.040100
     41 H11          6.0700     3.8290    -1.1510 h4         1 5UL       0.033100
     42 H12          7.1040    -2.4370     1.7630 h5         1 5UL       0.054800
     43 H13         -2.3400     0.2640     0.6120 h1         1 5UL       0.029950
     44 H14         -2.0830     0.2330    -1.1300 h1         1 5UL       0.029950
     45 H15         -8.3240     1.2370     2.4340 ha         1 5UL       0.146500
     46 H16          8.1130     3.0360     0.0230 ha         1 5UL       0.169000
     47 H17          8.9960    -1.1700     2.0570 hn         1 5UL       0.336500
     48 H21         -3.5190    -3.4770    -0.1220 hc         1 5UL       0.047700
     49 H22         -3.7370    -3.4510     1.6230 hc         1 5UL       0.047700
     50 H23         -4.4800     0.1570    -0.5780 hc         1 5UL       0.047700
     51 H24         -3.9730    -1.2750    -1.4640 hc         1 5UL       0.047700
     52 H25         -4.3700    -1.0770     1.5490 hc         1 5UL       0.045700
     53 H26         -6.7590    -0.6540     2.4670 ha         1 5UL       0.134500
     54 C8          -0.1720    -1.2250    -0.0710 c3         1 5UL       0.169800
     55 O            9.4640     1.1660     1.2950 o          1 5UL      -0.594500
     56 H18          0.3640    -2.1440     0.1800 h1         1 5UL       0.031700
     57 H19          0.0320    -0.5150     0.7490 h1         1 5UL       0.031700
@<TRIPOS>BOND
     1     1     2 ar  
     2     1    29 ar  
     3     1    31 1   
     4     2    27 ar  
     5     2    32 1   
     6     3    10 ar  
     7     3    11 ar  
     8     4    26 1   
     9     4    27 1   
    10     4    33 1   
    11     4    34 1   
    12     5    23 1   
    13     5    24 1   
    14     5    35 1   
    15     5    36 1   
    16     6     7 1   
    17     6    37 1   
    18     6    38 1   
    19     6    54 1   
    20     7     8 2   
    21     7     9 1   
    22     8    21 1   
    23     8    39 1   
    24     9    22 2   
    25     9    40 1   
    26    10    13 ar  
    27    10    21 1   
    28    11    18 ar  
    29    11    41 1   
    30    12    13 ar  
    31    12    17 1   
    32    12    18 ar  
    33    13    20 1   
    34    14    19 1   
    35    14    20 2   
    36    14    42 1   
    37    15    23 1   
    38    15    25 1   
    39    15    43 1   
    40    15    44 1   
    41    16    28 ar  
    42    16    29 ar  
    43    16    45 1   
    44    17    19 1   
    45    17    55 2   
    46    18    46 1   
    47    19    47 1   
    48    21    22 1   
    49    23    54 1   
    50    24    26 1   
    51    24    48 1   
    52    24    49 1   
    53    25    26 1   
    54    25    50 1   
    55    25    51 1   
    56    26    52 1   
    57    27    28 ar  
    58    28    53 1   
    59    29    30 1   
    60    54    56 1   
    61    54    57 1   
@<TRIPOS>SUBSTRUCTURE
     1 5UL         1 TEMP              0 ****  ****    0 ROOT
