@<TRIPOS>MOLECULE
5UM
   31    32     1     0     0
SMALL
abcg2


@<TRIPOS>ATOM
      1 C01         -3.1590    -0.1240     0.0980 ca         1 5UM      -0.289500
      2 F01         -1.0830     2.8040    -0.0470 f          1 5UM      -0.185000
      3 N01         -5.0710    -1.1340    -1.4110 n8         1 5UM      -1.001100
      4 O01         -5.0650    -1.7080     1.0020 o          1 5UM      -0.542500
      5 S01         -4.8690    -0.5630     0.1260 sy         1 5UM       1.132600
      6 C02         -2.7960     1.2140     0.0330 ca         1 5UM      -0.026000
      7 O02         -5.6330     0.6490     0.3890 o          1 5UM      -0.542500
      8 C03         -1.4570     1.5170     0.0160 ca         1 5UM       0.081000
      9 C04         -0.4510     0.5480     0.0640 ca         1 5UM       0.008000
     10 C05         -0.8530    -0.7890     0.1340 ca         1 5UM      -0.145000
     11 C06         -2.1960    -1.1190     0.1510 ca         1 5UM       0.019000
     12 N07          0.8620     0.9900     0.0340 ns         1 5UM      -0.149000
     13 C08          2.0100     0.2550     0.1010 c          1 5UM       0.608100
     14 O08          2.0400    -0.9530     0.1870 o          1 5UM      -0.547100
     15 C09          3.2590     1.1210     0.0760 c3         1 5UM      -0.083100
     16 C10          4.5070     0.3470    -0.1670 cc         1 5UM      -0.221300
     17 C11          5.2760     0.3430    -1.2920 cd         1 5UM      -0.119000
     18 C12          6.4060    -0.5130    -1.1930 cd         1 5UM      -0.134000
     19 C13          6.4750    -1.1460     0.0100 cc         1 5UM      -0.238000
     20 S14          5.1650    -0.7070     1.0240 ss         1 5UM       0.242000
     21 HN01        -5.9350    -1.6620    -1.4970 hn         1 5UM       0.472500
     22 HN0A        -5.0420    -0.3970    -2.1090 hn         1 5UM       0.472500
     23 H02         -3.5270     2.0100    -0.0030 ha         1 5UM       0.156000
     24 H05         -0.1200    -1.5760     0.1750 ha         1 5UM       0.159000
     25 H06         -2.4770    -2.1620     0.2060 ha         1 5UM       0.143000
     26 HN07         0.9850     1.9890    -0.0400 hn         1 5UM       0.166000
     27 H09          3.1590     1.8850    -0.6990 hc         1 5UM       0.073200
     28 H09A         3.3050     1.6630     1.0270 hc         1 5UM       0.073200
     29 H11          5.0430     0.9400    -2.1640 ha         1 5UM       0.130000
     30 H12          7.1310    -0.6500    -1.9820 ha         1 5UM       0.135000
     31 H13          7.2210    -1.8470     0.3520 h4         1 5UM       0.152000
@<TRIPOS>BOND
     1     1     5 1   
     2     1     6 ar  
     3     1    11 ar  
     4     2     8 1   
     5     3     5 1   
     6     3    21 1   
     7     3    22 1   
     8     4     5 2   
     9     5     7 2   
    10     6     8 ar  
    11     6    23 1   
    12     8     9 ar  
    13     9    10 ar  
    14     9    12 1   
    15    10    11 ar  
    16    10    24 1   
    17    11    25 1   
    18    12    13 1   
    19    12    26 1   
    20    13    14 2   
    21    13    15 1   
    22    15    16 1   
    23    15    27 1   
    24    15    28 1   
    25    16    17 2   
    26    16    20 1   
    27    17    18 1   
    28    17    29 1   
    29    18    19 2   
    30    18    30 1   
    31    19    20 1   
    32    19    31 1   
@<TRIPOS>SUBSTRUCTURE
     1 5UM         1 TEMP              0 ****  ****    0 ROOT
