@<TRIPOS>MOLECULE
5UM
   31    32     1     0     0
SMALL
No Charge or Current Charge


@<TRIPOS>ATOM
      1 C01         -3.0750    -0.1460    -0.0510 ca         1 5UM      -0.289500
      2 F01         -0.5950     2.3380    -1.1090 f          1 5UM      -0.185000
      3 N01         -4.7490    -1.5900    -1.5290 n8         1 5UM      -1.001100
      4 O01         -5.3280    -1.2930     0.8460 o          1 5UM      -0.542500
      5 S01         -4.8110    -0.5280    -0.2880 sy         1 5UM       1.132600
      6 C02         -2.4930     0.9710    -0.6860 ca         1 5UM      -0.026000
      7 O02         -5.5050     0.6280    -0.8510 o          1 5UM      -0.542500
      8 C03         -1.1330     1.2610    -0.4900 ca         1 5UM       0.081000
      9 C04         -0.3280     0.4480     0.3350 ca         1 5UM       0.008000
     10 C05         -0.9200    -0.6690     0.9700 ca         1 5UM      -0.145000
     11 C06         -2.2820    -0.9630     0.7790 ca         1 5UM       0.019000
     12 N07          1.0430     0.8030     0.4880 ns         1 5UM      -0.149000
     13 C08          2.0960     0.2080     1.1680 c          1 5UM       0.608100
     14 O08          2.0070    -0.8390     1.8000 o          1 5UM      -0.547100
     15 C09          3.4300     0.9630     1.0500 c3         1 5UM      -0.083100
     16 C10          4.3770     0.3640     0.0350 cc         1 5UM      -0.221300
     17 C11          4.6280     0.8030    -1.2410 cd         1 5UM      -0.119000
     18 C12          5.5700     0.0040    -1.9410 cd         1 5UM      -0.134000
     19 C13          6.0460    -1.0520    -1.2050 cc         1 5UM      -0.238000
     20 S14          5.3230    -1.0810     0.4000 ss         1 5UM       0.242000
     21 HN01        -5.4330    -1.1850    -2.1640 hn         1 5UM       0.472500
     22 HN0A        -3.8550    -1.3700    -1.9600 hn         1 5UM       0.472500
     23 H02         -3.0860     1.6210    -1.3290 ha         1 5UM       0.156000
     24 H05         -0.3460    -1.3220     1.6190 ha         1 5UM       0.159000
     25 H06         -2.7150    -1.8300     1.2770 ha         1 5UM       0.143000
     26 HN07         1.2950     1.6530     0.0000 hn         1 5UM       0.166000
     27 H09          3.2320     2.0020     0.7610 hc         1 5UM       0.073200
     28 H09A         3.9160     0.9530     2.0330 hc         1 5UM       0.073200
     29 H11          4.1520     1.6770    -1.6770 ha         1 5UM       0.130000
     30 H12          5.8840     0.2090    -2.9610 ha         1 5UM       0.135000
     31 H13          6.7630    -1.8140    -1.4820 h4         1 5UM       0.152000
@<TRIPOS>BOND
     1     1     5 1   
     2     1     6 ar  
     3     1    11 ar  
     4     2     8 1   
     5     3     5 1   
     6     3    21 1   
     7     3    22 1   
     8     4     5 2   
     9     5     7 2   
    10     6     8 ar  
    11     6    23 1   
    12     8     9 ar  
    13     9    10 ar  
    14     9    12 1   
    15    10    11 ar  
    16    10    24 1   
    17    11    25 1   
    18    12    13 1   
    19    12    26 1   
    20    13    14 2   
    21    13    15 1   
    22    15    16 1   
    23    15    27 1   
    24    15    28 1   
    25    16    17 2   
    26    16    20 1   
    27    17    18 1   
    28    17    29 1   
    29    18    19 2   
    30    18    30 1   
    31    19    20 1   
    32    19    31 1   
@<TRIPOS>SUBSTRUCTURE
     1 5UM         1 TEMP              0 ****  ****    0 ROOT
