@<TRIPOS>MOLECULE
5UN
   31    32     1     0     0
SMALL
abcg2


@<TRIPOS>ATOM
      1 C01         -3.2980    -0.1240    -0.0010 ca         1 5UN      -0.358500
      2 N01         -5.5570     0.2730    -1.5400 n8         1 5UN      -0.997100
      3 O01         -5.7240    -0.7860     0.6940 o          1 5UN      -0.532000
      4 S01         -5.0170     0.2860     0.0130 sy         1 5UN       1.147600
      5 C02         -2.3450     0.8800    -0.0810 ca         1 5UN       0.016000
      6 O02         -5.1440     1.6580     0.4780 o          1 5UN      -0.532000
      7 C03         -0.9960     0.5680    -0.1020 ca         1 5UN      -0.179000
      8 C04         -0.5910    -0.7680    -0.0380 ca         1 5UN       0.041000
      9 C05         -1.5640    -1.7710     0.0400 ca         1 5UN      -0.179000
     10 C06         -2.9070    -1.4570     0.0610 ca         1 5UN       0.016000
     11 N07          0.7350    -1.1850    -0.0290 ns         1 5UN      -0.152000
     12 C08          1.8740    -0.4460    -0.1340 c          1 5UN       0.606100
     13 O08          1.8950     0.7600    -0.2560 o          1 5UN      -0.549100
     14 C09          3.1350    -1.2970    -0.1100 c3         1 5UN      -0.083100
     15 C10          4.3690    -0.5110     0.1590 cc         1 5UN      -0.222300
     16 C11          5.1340    -0.5280     1.2880 cd         1 5UN      -0.119000
     17 C12          6.2510     0.3480     1.2190 cd         1 5UN      -0.134000
     18 C13          6.3160     1.0160     0.0360 cc         1 5UN      -0.238000
     19 S14          5.0170     0.5880    -0.9970 ss         1 5UN       0.242000
     20 HN01        -5.5290    -0.6420    -1.9740 hn         1 5UN       0.474500
     21 HN0A        -5.1220     0.9720    -2.1320 hn         1 5UN       0.474500
     22 H02         -2.6370     1.9210    -0.1190 ha         1 5UN       0.136500
     23 H03         -0.2770     1.3670    -0.1550 ha         1 5UN       0.135000
     24 H05         -1.2640    -2.8100     0.0930 ha         1 5UN       0.135000
     25 H06         -3.6350    -2.2530     0.1300 ha         1 5UN       0.136500
     26 HN07         0.8630    -2.1830     0.0640 hn         1 5UN       0.153000
     27 H09          3.0400    -2.0780     0.6480 hc         1 5UN       0.070200
     28 H09A         3.1970    -1.8190    -1.0720 hc         1 5UN       0.070200
     29 H11          4.9060    -1.1530     2.1410 ha         1 5UN       0.130000
     30 H12          6.9710     0.4730     2.0150 ha         1 5UN       0.136000
     31 H13          7.0520     1.7380    -0.2830 h4         1 5UN       0.152000
@<TRIPOS>BOND
     1     1     4 1   
     2     1     5 ar  
     3     1    10 ar  
     4     2     4 1   
     5     2    20 1   
     6     2    21 1   
     7     3     4 2   
     8     4     6 2   
     9     5     7 ar  
    10     5    22 1   
    11     7     8 ar  
    12     7    23 1   
    13     8     9 ar  
    14     8    11 1   
    15     9    10 ar  
    16     9    24 1   
    17    10    25 1   
    18    11    12 1   
    19    11    26 1   
    20    12    13 2   
    21    12    14 1   
    22    14    15 1   
    23    14    27 1   
    24    14    28 1   
    25    15    16 2   
    26    15    19 1   
    27    16    17 1   
    28    16    29 1   
    29    17    18 2   
    30    17    30 1   
    31    18    19 1   
    32    18    31 1   
@<TRIPOS>SUBSTRUCTURE
     1 5UN         1 TEMP              0 ****  ****    0 ROOT
