@<TRIPOS>MOLECULE
5UN
   31    32     1     0     0
SMALL
No Charge or Current Charge


@<TRIPOS>ATOM
      1 C01         -3.1390     0.0500     0.0350 ca         1 5UN      -0.358500
      2 N01         -5.5340    -0.3350    -1.0070 n8         1 5UN      -0.997100
      3 O01         -5.3810    -0.3510     1.4280 o          1 5UN      -0.532000
      4 S01         -4.8740     0.4090     0.2880 sy         1 5UN       1.147600
      5 C02         -2.3550     0.9010    -0.7680 ca         1 5UN       0.016000
      6 O02         -5.1410     1.8340     0.0930 o          1 5UN      -0.532000
      7 C03         -0.9920     0.6220    -0.9690 ca         1 5UN      -0.179000
      8 C04         -0.3940    -0.5070    -0.3680 ca         1 5UN       0.041000
      9 C05         -1.1880    -1.3510     0.4300 ca         1 5UN      -0.179000
     10 C06         -2.5510    -1.0800     0.6360 ca         1 5UN       0.016000
     11 N07          0.9750    -0.8530    -0.5280 ns         1 5UN      -0.152000
     12 C08          2.0330    -0.2170    -1.1630 c          1 5UN       0.606100
     13 O08          1.9510     0.8690    -1.7260 o          1 5UN      -0.549100
     14 C09          3.3650    -0.9820    -1.0870 c3         1 5UN      -0.083100
     15 C10          4.3100    -0.4500    -0.0340 cc         1 5UN      -0.222300
     16 C11          4.5650    -0.9740     1.2090 cd         1 5UN      -0.119000
     17 C12          5.5050    -0.2210     1.9610 cd         1 5UN      -0.134000
     18 C13          5.9750     0.8850     1.2990 cc         1 5UN      -0.238000
     19 S14          5.2500     1.0210    -0.2990 ss         1 5UN       0.242000
     20 HN01        -6.1960    -0.9580    -0.5510 hn         1 5UN       0.474500
     21 HN0A        -4.7790    -0.9510    -1.2970 hn         1 5UN       0.474500
     22 H02         -2.7960     1.7770    -1.2430 ha         1 5UN       0.136500
     23 H03         -0.4230     1.2960    -1.6000 ha         1 5UN       0.135000
     24 H05         -0.7460    -2.2270     0.9000 ha         1 5UN       0.135000
     25 H06         -3.1390    -1.7500     1.2620 ha         1 5UN       0.136500
     26 HN07         1.2240    -1.7310    -0.0930 hn         1 5UN       0.153000
     27 H09          3.1620    -2.0360    -0.8630 hc         1 5UN       0.070200
     28 H09A         3.8550    -0.9130    -2.0650 hc         1 5UN       0.070200
     29 H11          4.0940    -1.8780     1.5840 ha         1 5UN       0.130000
     30 H12          5.8210    -0.4940     2.9640 ha         1 5UN       0.136000
     31 H13          6.6900     1.6290     1.6270 h4         1 5UN       0.152000
@<TRIPOS>BOND
     1     1     4 1   
     2     1     5 ar  
     3     1    10 ar  
     4     2     4 1   
     5     2    20 1   
     6     2    21 1   
     7     3     4 2   
     8     4     6 2   
     9     5     7 ar  
    10     5    22 1   
    11     7     8 ar  
    12     7    23 1   
    13     8     9 ar  
    14     8    11 1   
    15     9    10 ar  
    16     9    24 1   
    17    10    25 1   
    18    11    12 1   
    19    11    26 1   
    20    12    13 2   
    21    12    14 1   
    22    14    15 1   
    23    14    27 1   
    24    14    28 1   
    25    15    16 2   
    26    15    19 1   
    27    16    17 1   
    28    16    29 1   
    29    17    18 2   
    30    17    30 1   
    31    18    19 1   
    32    18    31 1   
@<TRIPOS>SUBSTRUCTURE
     1 5UN         1 TEMP              0 ****  ****    0 ROOT
