@<TRIPOS>MOLECULE
5UO
   54    58     1     0     0
SMALL
No Charge or Current Charge


@<TRIPOS>ATOM
      1 C1          -5.6800     0.9270     2.2620 cc         1 5UO       0.501800
      2 N2          -4.0390    -0.0480    -1.4100 na         1 5UO       0.111300
      3 C3          -5.3110    -0.5490    -1.0680 ca         1 5UO       0.476500
      4 C4          -2.4250     0.9640    -2.2470 cc         1 5UO       0.244900
      5 C5          -1.8770    -0.0950    -1.4860 cc         1 5UO      -0.203300
      6 C6          -0.4020    -0.3700    -1.3490 c3         1 5UO       0.007900
      7 C9           4.0760    -0.0550    -1.0150 c6         1 5UO      -0.070400
      8 C10          4.6730     0.8920     0.0560 c6         1 5UO      -0.017400
      9 C11          6.1090     0.5020     0.4420 ca         1 5UO      -0.070300
     10 C12          7.1690     1.4040     0.2130 ca         1 5UO      -0.099500
     11 C13          8.4860     1.0570     0.5620 ca         1 5UO      -0.103000
     12 C18          2.2880     1.3180     0.8600 c6         1 5UO       0.168800
     13 C19         -2.9360    -0.7690    -0.9480 cd         1 5UO      -0.129000
     14 C20         -7.2190    -1.8120    -1.5660 ca         1 5UO       0.336900
     15 C21         -7.8070    -1.5050    -0.3350 ca         1 5UO      -0.098000
     16 N1          -5.0910     0.6540     1.0970 nd         1 5UO      -0.579100
     17 C2          -5.8400    -0.1820     0.2200 ca         1 5UO       0.149400
     18 C7           0.3220     0.6850    -0.4790 c3         1 5UO       0.169800
     19 C8           2.6250     0.3490    -1.3750 c6         1 5UO       0.168800
     20 C14          8.7530    -0.1930     1.1430 ca         1 5UO       0.118000
     21 N3          -3.7420     1.0230    -2.2430 nd         1 5UO      -0.481800
     22 C15          7.7050    -1.0970     1.3750 ca         1 5UO      -0.103000
     23 Cl          10.4010    -0.6250     1.5790 cl         1 5UO      -0.209000
     24 C16          6.3870    -0.7520     1.0260 ca         1 5UO      -0.099500
     25 C17          3.7270     0.9350     1.2830 c6         1 5UO      -0.070400
     26 N4           1.7450     0.3870    -0.1690 n3         1 5UO      -0.724600
     27 N5          -6.0050    -1.3520    -1.9300 nb         1 5UO      -0.670000
     28 C22         -7.1150    -0.6810     0.5740 ca         1 5UO      -0.167600
     29 C           -7.7010    -0.3300     1.8920 c          1 5UO       0.573600
     30 O           -8.7930    -0.7130     2.2800 o          1 5UO      -0.519000
     31 N           -6.9110     0.4660     2.6440 ns         1 5UO      -0.427400
     32 H1          -5.2170     1.5510     3.0160 h5         1 5UO       0.055800
     33 H2          -1.8780     1.7010    -2.8200 h4         1 5UO       0.038100
     34 H3          -0.2510    -1.3600    -0.9040 hc         1 5UO       0.052700
     35 H4           0.0480    -0.4000    -2.3480 hc         1 5UO       0.052700
     36 H5           4.6980    -0.0360    -1.9200 hc         1 5UO       0.049950
     37 H6           4.0800    -1.0920    -0.6540 hc         1 5UO       0.049950
     38 H7           4.6950     1.9030    -0.3760 hc         1 5UO       0.048700
     39 H8           6.9750     2.3760    -0.2360 ha         1 5UO       0.117500
     40 H9           9.2990     1.7560     0.3830 ha         1 5UO       0.128000
     41 H10          1.6490     1.3090     1.7550 h1         1 5UO       0.030700
     42 H11          2.2900     2.3490     0.4760 h1         1 5UO       0.030700
     43 H12         -2.9970    -1.6440    -0.3100 h4         1 5UO       0.165000
     44 H13         -7.7350    -2.4480    -2.2850 h4         1 5UO       0.034100
     45 H14         -8.7900    -1.9070    -0.0980 ha         1 5UO       0.151000
     46 H15          0.2450     1.6620    -0.9760 h1         1 5UO       0.033200
     47 H16         -0.2380     0.7640     0.4630 h1         1 5UO       0.033200
     48 H17          2.6380     1.3340    -1.8660 h1         1 5UO       0.030700
     49 H18          2.2490    -0.3750    -2.1110 h1         1 5UO       0.030700
     50 H19          7.9140    -2.0650     1.8250 ha         1 5UO       0.128000
     51 H20          5.5850    -1.4630     1.2120 ha         1 5UO       0.117500
     52 H21          3.7070    -0.0410     1.7860 hc         1 5UO       0.049950
     53 H22          4.1000     1.6600     2.0180 hc         1 5UO       0.049950
     54 H24         -7.2730     0.7300     3.5490 hn         1 5UO       0.336500
@<TRIPOS>BOND
     1     1    16 2   
     2     1    31 1   
     3     1    32 1   
     4     2     3 1   
     5     2    13 1   
     6     2    21 1   
     7     3    17 ar  
     8     3    27 ar  
     9     4     5 1   
    10     4    21 2   
    11     4    33 1   
    12     5     6 1   
    13     5    13 2   
    14     6    18 1   
    15     6    34 1   
    16     6    35 1   
    17     7     8 1   
    18     7    19 1   
    19     7    36 1   
    20     7    37 1   
    21     8     9 1   
    22     8    25 1   
    23     8    38 1   
    24     9    10 ar  
    25     9    24 ar  
    26    10    11 ar  
    27    10    39 1   
    28    11    20 ar  
    29    11    40 1   
    30    12    25 1   
    31    12    26 1   
    32    12    41 1   
    33    12    42 1   
    34    13    43 1   
    35    14    15 ar  
    36    14    27 ar  
    37    14    44 1   
    38    15    28 ar  
    39    15    45 1   
    40    16    17 1   
    41    17    28 ar  
    42    18    26 1   
    43    18    46 1   
    44    18    47 1   
    45    19    26 1   
    46    19    48 1   
    47    19    49 1   
    48    20    22 ar  
    49    20    23 1   
    50    22    24 ar  
    51    22    50 1   
    52    24    51 1   
    53    25    52 1   
    54    25    53 1   
    55    28    29 1   
    56    29    30 2   
    57    29    31 1   
    58    31    54 1   
@<TRIPOS>SUBSTRUCTURE
     1 5UO         1 TEMP              0 ****  ****    0 ROOT
