@<TRIPOS>MOLECULE
5UO
   54    58     1     0     0
SMALL
bcc


@<TRIPOS>ATOM
      1 C1          -6.7460     2.0580     0.9120 cc         1 5UO       0.501800
      2 N2          -3.8440    -0.2990    -0.8180 na         1 5UO       0.060600
      3 C3          -5.1080    -0.7920    -0.4610 ca         1 5UO       0.541800
      4 C4          -2.4160     0.9420    -1.7310 cc         1 5UO       0.310200
      5 C5          -1.6910    -0.1470    -1.1920 cc         1 5UO      -0.268600
      6 C6          -0.2130    -0.3540    -1.1980 c3         1 5UO       0.007900
      7 C9           4.0680     0.5890    -1.0390 c6         1 5UO      -0.070400
      8 C10          4.7170     0.8380     0.3230 c6         1 5UO      -0.017400
      9 C11          6.1760     0.4650     0.3410 ca         1 5UO      -0.070300
     10 C12          7.1530     1.4120     0.6340 ca         1 5UO      -0.117500
     11 C13          8.5020     1.0830     0.6570 ca         1 5UO      -0.121000
     12 C18          2.4410     0.4560     1.3250 c6         1 5UO       0.168800
     13 C19         -2.6580    -0.9300    -0.6200 cd         1 5UO      -0.096300
     14 C20         -6.4710    -2.6220    -0.3420 ca         1 5UO       0.402200
     15 C21         -7.5240    -1.8910     0.1560 ca         1 5UO      -0.181300
     16 N1          -5.7980     1.3630     0.4000 nd         1 5UO      -0.579100
     17 C2          -6.0850     0.0560     0.1080 ca         1 5UO       0.084100
     18 C7           0.4570     0.3620    -0.0240 c3         1 5UO       0.169800
     19 C8           2.5860     0.9270    -1.0090 c6         1 5UO       0.168800
     20 C14          8.8790    -0.2200     0.3810 ca         1 5UO       0.026400
     21 N3          -3.7060     0.8390    -1.5040 nd         1 5UO      -0.481800
     22 C15          7.9320    -1.1890     0.0850 ca         1 5UO      -0.121000
     23 CL          10.5610    -0.6490     0.4040 cl         1 5UO      -0.117400
     24 C16          6.5910    -0.8380     0.0670 ca         1 5UO      -0.117500
     25 C17          3.9180     0.1010     1.4000 c6         1 5UO      -0.070400
     26 N4           1.8930     0.1630     0.0130 n3         1 5UO      -0.724600
     27 N5          -5.2950    -2.0720    -0.6570 nb         1 5UO      -0.670000
     28 C22         -7.3240    -0.5320     0.3880 ca         1 5UO      -0.167600
     29 C           -8.3920     0.2980     0.9540 c          1 5UO       0.716100
     30 O           -9.5120    -0.0910     1.2120 o          1 5UO      -0.594500
     31 N           -7.9950     1.5950     1.1720 ns         1 5UO      -0.494400
     32 H1          -6.5770     3.0950     1.1730 h5         1 5UO       0.055800
     33 H2          -2.0260     1.7850    -2.2820 h4         1 5UO       0.038100
     34 H3           0.0210    -1.4200    -1.1410 hc         1 5UO       0.052700
     35 H4           0.1930     0.0050    -2.1460 hc         1 5UO       0.052700
     36 H5           4.5620     1.1880    -1.8080 hc         1 5UO       0.049950
     37 H6           4.1900    -0.4600    -1.3260 hc         1 5UO       0.049950
     38 H7           4.6420     1.9110     0.5330 hc         1 5UO       0.048700
     39 H8           6.8610     2.4330     0.8520 ha         1 5UO       0.135500
     40 H9           9.2440     1.8350     0.8870 ha         1 5UO       0.146000
     41 H10          1.8930    -0.1220     2.0720 h1         1 5UO       0.030700
     42 H11          2.3090     1.5210     1.5910 h1         1 5UO       0.030700
     43 H12         -2.5940    -1.8630    -0.0850 h4         1 5UO       0.183000
     44 H13         -6.5660    -3.6860    -0.5160 h4         1 5UO       0.034100
     45 H14         -8.4730    -2.3610     0.3740 ha         1 5UO       0.169000
     46 H15          0.1900     1.4330    -0.0460 h1         1 5UO       0.033200
     47 H16          0.0340    -0.0380     0.9010 h1         1 5UO       0.033200
     48 H17          2.4610     2.0130    -0.8470 h1         1 5UO       0.030700
     49 H18          2.1550     0.7060    -1.9870 h1         1 5UO       0.030700
     50 H19          8.2330    -2.2050    -0.1330 ha         1 5UO       0.146000
     51 H20          5.8600    -1.6030    -0.1650 ha         1 5UO       0.135500
     52 H21          4.0320    -0.9800     1.2750 hc         1 5UO       0.049950
     53 H22          4.3000     0.3520     2.3930 hc         1 5UO       0.049950
     54 H24         -8.6720     2.2370     1.5650 hn         1 5UO       0.336500
@<TRIPOS>BOND
     1     1    16 2   
     2     1    31 1   
     3     1    32 1   
     4     2     3 1   
     5     2    13 1   
     6     2    21 1   
     7     3    17 ar  
     8     3    27 ar  
     9     4     5 1   
    10     4    21 2   
    11     4    33 1   
    12     5     6 1   
    13     5    13 2   
    14     6    18 1   
    15     6    34 1   
    16     6    35 1   
    17     7     8 1   
    18     7    19 1   
    19     7    36 1   
    20     7    37 1   
    21     8     9 1   
    22     8    25 1   
    23     8    38 1   
    24     9    10 ar  
    25     9    24 ar  
    26    10    11 ar  
    27    10    39 1   
    28    11    20 ar  
    29    11    40 1   
    30    12    25 1   
    31    12    26 1   
    32    12    41 1   
    33    12    42 1   
    34    13    43 1   
    35    14    15 ar  
    36    14    27 ar  
    37    14    44 1   
    38    15    28 ar  
    39    15    45 1   
    40    16    17 1   
    41    17    28 ar  
    42    18    26 1   
    43    18    46 1   
    44    18    47 1   
    45    19    26 1   
    46    19    48 1   
    47    19    49 1   
    48    20    22 ar  
    49    20    23 1   
    50    22    24 ar  
    51    22    50 1   
    52    24    51 1   
    53    25    52 1   
    54    25    53 1   
    55    28    29 1   
    56    29    30 2   
    57    29    31 1   
    58    31    54 1   
@<TRIPOS>SUBSTRUCTURE
     1 5UO         1 TEMP              0 ****  ****    0 ROOT
