@<TRIPOS>MOLECULE
5UP
   23    24     1     0     0
SMALL
bcc


@<TRIPOS>ATOM
      1 C1           2.4940     0.0410    -0.1570 ca         1 5UP      -0.121600
      2 C2           1.1530    -0.3140    -0.1190 ca         1 5UP      -0.160300
      3 C3           0.1890     0.6890    -0.0880 ca         1 5UP       0.380300
      4 C4           1.7850     2.3160    -0.1720 ca         1 5UP       0.398200
      5 C5           2.8200     1.3900    -0.1900 ca         1 5UP      -0.230300
      6 C6          -1.2390     0.3580    -0.0230 cc         1 5UP       0.324300
      7 N1           0.5070     1.9840    -0.1180 nb         1 5UP      -0.660000
      8 C7          -2.2400     1.2750     0.0010 cd         1 5UP      -0.166400
      9 C8          -2.9180    -1.0600     0.0840 cd         1 5UP       0.702300
     10 O            3.2440    -2.1470    -0.6650 o          1 5UP      -0.591100
     11 C            3.5230    -1.0520    -0.2030 c          1 5UP       0.682700
     12 N            4.7290    -0.7360     0.2830 nt         1 5UP      -0.669000
     13 N3          -1.6270    -0.9550     0.0220 nc         1 5UP      -0.725000
     14 N2          -3.5910    -2.2240     0.1960 nv         1 5UP      -0.935500
     15 S           -3.7610     0.4710     0.0870 ss         1 5UP      -0.251300
     16 H1           0.8530    -1.3520    -0.1010 ha         1 5UP       0.184000
     17 H2           2.0090     3.3760    -0.2070 h4         1 5UP       0.021100
     18 H3           3.8420     1.7400    -0.2520 ha         1 5UP       0.139000
     19 H4          -2.1700     2.3500    -0.0290 h4         1 5UP       0.195000
     20 H5           5.4630    -1.4260     0.2900 hn         1 5UP       0.316000
     21 H6           4.9070     0.1260     0.7690 hn         1 5UP       0.316000
     22 H7          -4.5680    -2.2490    -0.0410 hn         1 5UP       0.427300
     23 H8          -3.0810    -3.0600    -0.0410 hn         1 5UP       0.427300
@<TRIPOS>BOND
     1     1     2 ar  
     2     1     5 ar  
     3     1    11 1   
     4     2     3 ar  
     5     2    16 1   
     6     3     6 1   
     7     3     7 ar  
     8     4     5 ar  
     9     4     7 ar  
    10     4    17 1   
    11     5    18 1   
    12     6     8 2   
    13     6    13 1   
    14     8    15 1   
    15     8    19 1   
    16     9    13 2   
    17     9    14 1   
    18     9    15 1   
    19    10    11 2   
    20    11    12 1   
    21    12    20 1   
    22    12    21 1   
    23    14    22 1   
    24    14    23 1   
@<TRIPOS>SUBSTRUCTURE
     1 5UP         1 TEMP              0 ****  ****    0 ROOT
