@<TRIPOS>MOLECULE
5UP
   23    24     1     0     0
SMALL
No Charge or Current Charge


@<TRIPOS>ATOM
      1 C1           2.5100     0.0060    -0.0160 ca         1 5UP      -0.121600
      2 C2           1.1400    -0.3370     0.0040 ca         1 5UP      -0.077000
      3 C3           0.1450     0.6670    -0.0200 ca         1 5UP       0.315000
      4 C4           1.7850     2.3280    -0.0810 ca         1 5UP       0.332900
      5 C5           2.8240     1.3840    -0.0600 ca         1 5UP      -0.147000
      6 C6          -1.2960     0.2820     0.0020 cc         1 5UP       0.259000
      7 N1           0.4780     1.9880    -0.0610 nb         1 5UP      -0.660000
      8 C7          -2.2680     1.2620    -0.0210 cd         1 5UP      -0.228000
      9 C8          -3.0460    -1.0150     0.0570 cd         1 5UP       0.702300
     10 O            3.2920    -2.2640     0.0460 o          1 5UP      -0.591100
     11 C            3.5670    -1.0760     0.0090 c          1 5UP       0.615700
     12 N            4.8650    -0.7020    -0.0120 nt         1 5UP      -0.602000
     13 N3          -1.7420    -1.0250     0.0430 nc         1 5UP      -0.725000
     14 N2          -3.6500    -2.2070     0.0820 nv         1 5UP      -1.045900
     15 S           -3.8680     0.5370     0.0100 ss         1 5UP      -0.106400
     16 H1           0.8430    -1.3820     0.0370 ha         1 5UP       0.166000
     17 H2           2.0080     3.3940    -0.1140 h4         1 5UP       0.021100
     18 H3           3.8490     1.7390    -0.0780 ha         1 5UP       0.121000
     19 H4          -2.1420     2.3370    -0.0530 h4         1 5UP       0.177000
     20 H5           5.5810    -1.4130     0.0050 hn         1 5UP       0.316000
     21 H6           5.1130     0.2740    -0.0430 hn         1 5UP       0.316000
     22 H7          -4.6060    -2.2410    -0.2510 hn         1 5UP       0.482500
     23 H8          -3.0590    -2.9930    -0.1570 hn         1 5UP       0.482500
@<TRIPOS>BOND
     1     1     2 ar  
     2     1     5 ar  
     3     1    11 1   
     4     2     3 ar  
     5     2    16 1   
     6     3     6 1   
     7     3     7 ar  
     8     4     5 ar  
     9     4     7 ar  
    10     4    17 1   
    11     5    18 1   
    12     6     8 2   
    13     6    13 1   
    14     8    15 1   
    15     8    19 1   
    16     9    13 2   
    17     9    14 1   
    18     9    15 1   
    19    10    11 2   
    20    11    12 1   
    21    12    20 1   
    22    12    21 1   
    23    14    22 1   
    24    14    23 1   
@<TRIPOS>SUBSTRUCTURE
     1 5UP         1 TEMP              0 ****  ****    0 ROOT
