@<TRIPOS>MOLECULE
5UQ
   41    41     1     0     0
SMALL
abcg2


@<TRIPOS>ATOM
      1 C1         128.0480    74.0230     2.6460 c3         1 5UQ       0.163600
      2 C4         127.8580    75.4620     2.2020 c3         1 5UQ      -0.082400
      3 C7         127.3380    76.3630     4.5180 c3         1 5UQ      -0.094100
      4 C9         127.0370    76.3810    -3.2790 c3         1 5UQ      -0.116100
      5 C11        128.9500    75.9260    -1.7260 c3         1 5UQ       0.122600
      6 C13        127.8860    76.9480    -2.1390 c3         1 5UQ       0.187000
      7 C14        128.2170    76.4870     3.2760 c3         1 5UQ      -0.069700
      8 C15        126.9670    77.2630    -0.9460 c3         1 5UQ      -0.086400
      9 C16        126.3950    78.5670     1.0850 c          1 5UQ       0.560000
     10 C17        127.3900    78.4410    -0.0510 c6         1 5UQ       0.050700
     11 C18        129.2070    78.1300     1.6420 c          1 5UQ       0.563000
     12 C19        128.1730    77.9300     2.7300 c6         1 5UQ       0.042700
     13 N2         126.8470    78.3430     2.3260 ns         1 5UQ      -0.502900
     14 N5         128.7590    78.3910     0.4090 ns         1 5UQ      -0.495900
     15 O3         127.8150    73.1910     1.5300 oh         1 5UQ      -0.667000
     16 O6         128.5020    78.1600    -2.5380 oh         1 5UQ      -0.674000
     17 O10        130.3960    78.0530     1.9140 o          1 5UQ      -0.565000
     18 H1         127.3610    73.7840     3.4670 h1         1 5UQ       0.020200
     19 H2         129.0670    73.8970     3.0370 h1         1 5UQ       0.020200
     20 H3         128.4860    75.6140     1.3190 hc         1 5UQ       0.054700
     21 H4         126.8190    75.6040     1.8870 hc         1 5UQ       0.054700
     22 H5         127.5480    77.1610     5.2320 hc         1 5UQ       0.039033
     23 H6         126.2760    76.4010     4.2690 hc         1 5UQ       0.039033
     24 H7         127.5150    75.4190     5.0310 hc         1 5UQ       0.039033
     25 H8         126.5020    75.4870    -2.9540 hc         1 5UQ       0.048033
     26 H9         126.2970    77.1140    -3.6020 hc         1 5UQ       0.048033
     27 H10        127.6440    76.1080    -4.1420 hc         1 5UQ       0.048033
     28 H11        128.4470    75.0010    -1.4110 h1         1 5UQ       0.038700
     29 H12        129.5090    76.2950    -0.8600 h1         1 5UQ       0.038700
     30 H13        129.2540    76.3220     3.5820 hc         1 5UQ       0.074700
     31 H14        125.9710    77.5110    -1.3190 hc         1 5UQ       0.068200
     32 H15        126.8500    76.3570    -0.3470 hc         1 5UQ       0.068200
     33 H16        127.2820    79.3580    -0.6340 h1         1 5UQ       0.096700
     34 H17        128.4830    78.5900     3.5470 h1         1 5UQ       0.080700
     35 H18        126.1670    78.4590     3.0640 hn         1 5UQ       0.322500
     36 H19        129.4610    78.5580    -0.2990 hn         1 5UQ       0.335500
     37 H20        127.8940    72.2760     1.8150 ho         1 5UQ       0.446000
     38 H21        129.1870    77.9430    -3.1830 ho         1 5UQ       0.463000
     39 H22        130.6320    75.3360    -2.5030 ho         1 5UQ       0.453000
     40 O12        125.2340    78.8610     0.8470 o          1 5UQ      -0.557000
     41 O8         129.8060    75.7070    -2.8250 oh         1 5UQ      -0.674000
@<TRIPOS>BOND
     1     1     2 1   
     2     1    15 1   
     3     1    18 1   
     4     1    19 1   
     5     2     7 1   
     6     2    20 1   
     7     2    21 1   
     8     3     7 1   
     9     3    22 1   
    10     3    23 1   
    11     3    24 1   
    12     4     6 1   
    13     4    25 1   
    14     4    26 1   
    15     4    27 1   
    16     5     6 1   
    17     5    28 1   
    18     5    29 1   
    19     5    41 1   
    20     6     8 1   
    21     6    16 1   
    22     7    12 1   
    23     7    30 1   
    24     8    10 1   
    25     8    31 1   
    26     8    32 1   
    27     9    10 1   
    28     9    13 1   
    29     9    40 2   
    30    10    14 1   
    31    10    33 1   
    32    11    12 1   
    33    11    14 1   
    34    11    17 2   
    35    12    13 1   
    36    12    34 1   
    37    13    35 1   
    38    14    36 1   
    39    15    37 1   
    40    16    38 1   
    41    39    41 1   
@<TRIPOS>SUBSTRUCTURE
     1 5UQ         1 TEMP              0 ****  ****    0 ROOT
