@<TRIPOS>MOLECULE
5UQ
   41    41     1     0     0
SMALL
No Charge or Current Charge


@<TRIPOS>ATOM
      1 C1         127.3220    73.9010     3.0880 c3         1 5UQ       0.163600
      2 C4         127.5350    75.3150     2.5050 c3         1 5UQ      -0.082400
      3 C7         127.0290    76.5270     4.7240 c3         1 5UQ      -0.094100
      4 C9         127.2550    75.7130    -3.0890 c3         1 5UQ      -0.116100
      5 C11        129.3790    77.0760    -2.6350 c3         1 5UQ       0.122600
      6 C13        127.8370    76.9710    -2.3970 c3         1 5UQ       0.187000
      7 C14        128.0130    76.3830     3.5340 c3         1 5UQ      -0.069700
      8 C15        127.4580    76.9630    -0.8860 c3         1 5UQ      -0.086400
      9 C16        126.7880    78.5390     1.0170 c          1 5UQ       0.560000
     10 C17        127.8920    78.2040    -0.0350 c6         1 5UQ       0.050700
     11 C18        129.5080    77.6610     1.8600 c          1 5UQ       0.563000
     12 C19        128.3380    77.7730     2.8860 c6         1 5UQ       0.042700
     13 N2         127.1160    78.4200     2.3470 ns         1 5UQ      -0.502900
     14 N5         129.2430    78.0050     0.5550 ns         1 5UQ      -0.495900
     15 O3         127.0040    72.9900     2.0310 oh         1 5UQ      -0.667000
     16 O6         127.2370    78.1110    -3.0130 oh         1 5UQ      -0.674000
     17 O10        130.6410    77.3470     2.1910 o          1 5UQ      -0.565000
     18 H1         126.5070    73.9210     3.8230 h1         1 5UQ       0.020200
     19 H2         128.2370    73.5790     3.6020 h1         1 5UQ       0.020200
     20 H3         128.2830    75.2340     1.7090 hc         1 5UQ       0.054700
     21 H4         126.6020    75.6490     2.0350 hc         1 5UQ       0.054700
     22 H5         127.3550    77.3260     5.4010 hc         1 5UQ       0.039033
     23 H6         126.0170    76.7680     4.3740 hc         1 5UQ       0.039033
     24 H7         126.9770    75.6030     5.3120 hc         1 5UQ       0.039033
     25 H8         127.7010    74.8010    -2.6740 hc         1 5UQ       0.048033
     26 H9         126.1690    75.6540    -2.9470 hc         1 5UQ       0.048033
     27 H10        127.4490    75.7230    -4.1690 hc         1 5UQ       0.048033
     28 H11        129.8620    76.1620    -2.2620 h1         1 5UQ       0.038700
     29 H12        129.7830    77.9210    -2.0650 h1         1 5UQ       0.038700
     30 H13        128.9510    76.0040     3.9640 hc         1 5UQ       0.074700
     31 H14        126.3660    76.8620    -0.8360 hc         1 5UQ       0.068200
     32 H15        127.8470    76.0450    -0.4310 hc         1 5UQ       0.068200
     33 H16        127.9290    79.0900    -0.6840 h1         1 5UQ       0.096700
     34 H17        128.7260    78.4310     3.6770 h1         1 5UQ       0.080700
     35 H18        126.3920    78.6970     3.0000 hn         1 5UQ       0.322500
     36 H19        130.0480    78.0060    -0.0600 hn         1 5UQ       0.335500
     37 H20        126.8770    72.1070     2.4430 ho         1 5UQ       0.446000
     38 H21        127.8080    78.2760    -3.8000 ho         1 5UQ       0.463000
     39 H22        130.6450    77.2380    -4.1390 ho         1 5UQ       0.453000
     40 O12        125.6860    78.9610     0.6990 o          1 5UQ      -0.557000
     41 O8         129.6670    77.2640    -4.0360 oh         1 5UQ      -0.674000
@<TRIPOS>BOND
     1     1     2 1   
     2     1    15 1   
     3     1    18 1   
     4     1    19 1   
     5     2     7 1   
     6     2    20 1   
     7     2    21 1   
     8     3     7 1   
     9     3    22 1   
    10     3    23 1   
    11     3    24 1   
    12     4     6 1   
    13     4    25 1   
    14     4    26 1   
    15     4    27 1   
    16     5     6 1   
    17     5    28 1   
    18     5    29 1   
    19     5    41 1   
    20     6     8 1   
    21     6    16 1   
    22     7    12 1   
    23     7    30 1   
    24     8    10 1   
    25     8    31 1   
    26     8    32 1   
    27     9    10 1   
    28     9    13 1   
    29     9    40 2   
    30    10    14 1   
    31    10    33 1   
    32    11    12 1   
    33    11    14 1   
    34    11    17 2   
    35    12    13 1   
    36    12    34 1   
    37    13    35 1   
    38    14    36 1   
    39    15    37 1   
    40    16    38 1   
    41    39    41 1   
@<TRIPOS>SUBSTRUCTURE
     1 5UQ         1 TEMP              0 ****  ****    0 ROOT
