@<TRIPOS>MOLECULE
5UR
   41    43     1     0     0
SMALL
No Charge or Current Charge


@<TRIPOS>ATOM
      1 C4          17.7190    -7.4660    16.8450 ca         1 5UR      -0.111300
      2 C8          20.2260    -7.6120    18.5850 c          1 5UR       0.612700
      3 C9          20.8570    -8.3070    19.7670 ca         1 5UR      -0.148600
      4 C10         20.1890    -8.3950    21.0090 ca         1 5UR      -0.026000
      5 C11         20.7940    -9.0530    22.0920 ca         1 5UR      -0.132000
      6 C14         22.1370    -8.8880    19.6350 ca         1 5UR      -0.006000
      7 C17         17.7720    -3.1580    18.9370 cc         1 5UR      -0.234000
      8 C18         18.2680    -2.5210    20.0450 cd         1 5UR       0.235900
      9 Cl1         16.0280   -10.6790    14.0470 cl         1 5UR      -0.181000
     10 CG          16.6760    -9.4460    15.1210 ca         1 5UR       0.135000
     11 CD1         16.6510    -9.6430    16.5090 ca         1 5UR      -0.103000
     12 CE1         17.1670    -8.6580    17.3680 ca         1 5UR      -0.076000
     13 CE2         17.7290    -7.2760    15.4420 ca         1 5UR       0.141000
     14 CD2         17.2110    -8.2650    14.5890 ca         1 5UR      -0.097000
     15 Cl2         18.3670    -5.8020    14.7130 cl         1 5UR      -0.188000
     16 C           18.2780    -6.4050    17.8020 c3         1 5UR       0.206600
     17 O           19.0030    -7.0550    18.8660 os         1 5UR      -0.447100
     18 OH          20.7640    -7.5500    17.4880 o          1 5UR      -0.462000
     19 C12         22.0680    -9.6270    21.9540 ca         1 5UR      -0.030000
     20 C13         22.7550    -9.5430    20.7240 ca         1 5UR      -0.211300
     21 F1          24.9410    -9.4340    19.7520 f          1 5UR      -0.110667
     22 F2          24.7970   -10.3150    21.7280 f          1 5UR      -0.110667
     23 F3          24.0540   -11.4040    19.9990 f          1 5UR      -0.110667
     24 CA          17.1460    -5.5780    18.4480 c3         1 5UR       0.074600
     25 N           17.6380    -4.4810    19.3000 na         1 5UR      -0.172500
     26 N2          18.4460    -3.4160    21.0810 nd         1 5UR      -0.671000
     27 C19         18.0620    -4.5940    20.6080 cc         1 5UR       0.398400
     28 H1          19.2000    -7.9630    21.1450 ha         1 5UR       0.131000
     29 H2          20.2720    -9.1210    23.0430 ha         1 5UR       0.128000
     30 H3          22.6560    -8.8320    18.6790 ha         1 5UR       0.153000
     31 H4          17.5160    -2.7750    17.9570 h4         1 5UR       0.158000
     32 H5          18.5080    -1.4700    20.1540 h4         1 5UR       0.040100
     33 H6          16.2310   -10.5580    16.9190 ha         1 5UR       0.138000
     34 H7          17.1370    -8.8250    18.4430 ha         1 5UR       0.130000
     35 H8          17.2220    -8.1120    13.5140 ha         1 5UR       0.149000
     36 H9          18.9390    -5.7080    17.2700 h1         1 5UR       0.096700
     37 H10         22.5130   -10.1380    22.8060 ha         1 5UR       0.135000
     38 H11         16.5220    -5.1490    17.6540 h1         1 5UR       0.077200
     39 H12         16.5100    -6.2390    19.0490 h1         1 5UR       0.077200
     40 H13         18.0630    -5.5380    21.1420 h5         1 5UR       0.051100
     41 C15         24.1410   -10.1740    20.5540 c3         1 5UR       0.360300
@<TRIPOS>BOND
     1     1    12 ar  
     2     1    13 ar  
     3     1    16 1   
     4     2     3 1   
     5     2    17 1   
     6     2    18 2   
     7     3     4 ar  
     8     3     6 ar  
     9     4     5 ar  
    10     4    28 1   
    11     5    19 ar  
    12     5    29 1   
    13     6    20 ar  
    14     6    30 1   
    15     7     8 2   
    16     7    25 1   
    17     7    31 1   
    18     8    26 1   
    19     8    32 1   
    20     9    10 1   
    21    10    11 ar  
    22    10    14 ar  
    23    11    12 ar  
    24    11    33 1   
    25    12    34 1   
    26    13    14 ar  
    27    13    15 1   
    28    14    35 1   
    29    16    17 1   
    30    16    24 1   
    31    16    36 1   
    32    19    20 ar  
    33    19    37 1   
    34    20    41 1   
    35    21    41 1   
    36    22    41 1   
    37    23    41 1   
    38    24    25 1   
    39    24    38 1   
    40    24    39 1   
    41    25    27 1   
    42    26    27 2   
    43    27    40 1   
@<TRIPOS>SUBSTRUCTURE
     1 5UR         1 TEMP              0 ****  ****    0 ROOT
