@<TRIPOS>MOLECULE
5UR
   41    43     1     0     0
SMALL
bcc


@<TRIPOS>ATOM
      1 C4          17.6670    -7.5360    16.7850 ca         1 5UR      -0.111300
      2 C8          20.2260    -7.6270    18.5920 c          1 5UR       0.661700
      3 C9          20.8080    -8.2650    19.7990 ca         1 5UR      -0.148600
      4 C10         20.0710    -8.4730    20.9620 ca         1 5UR      -0.044000
      5 C11         20.6650    -9.0850    22.0530 ca         1 5UR      -0.150000
      6 C14         22.1400    -8.6640    19.7410 ca         1 5UR      -0.024000
      7 C17         18.3460    -3.5070    18.8740 cc         1 5UR      -0.266600
      8 C18         18.8370    -2.9410    20.0140 cd         1 5UR       0.301200
      9 CL1         15.5880   -10.4070    13.9860 cl         1 5UR      -0.089400
     10 CG          16.3880    -9.3130    15.0580 ca         1 5UR       0.043400
     11 CD1         16.6230    -9.6850    16.3700 ca         1 5UR      -0.121000
     12 CE1         17.2560    -8.7930    17.2190 ca         1 5UR      -0.094000
     13 CE2         17.4090    -7.1990    15.4590 ca         1 5UR       0.049400
     14 CD2         16.7770    -8.0700    14.5870 ca         1 5UR      -0.115000
     15 CL2         17.8610    -5.6410    14.8520 cl         1 5UR      -0.096400
     16 C           18.2960    -6.5530    17.7380 c3         1 5UR       0.183400
     17 O           18.9750    -7.2190    18.7960 os         1 5UR      -0.423900
     18 OH          20.8120    -7.4890    17.5510 o          1 5UR      -0.511000
     19 C12         21.9920    -9.4810    21.9990 ca         1 5UR      -0.048000
     20 C13         22.7320    -9.2620    20.8420 ca         1 5UR      -0.211300
     21 F1          24.9050    -8.9340    19.9860 f          1 5UR      -0.231967
     22 F2          24.7370    -9.7530    21.9690 f          1 5UR      -0.231967
     23 F3          24.2450   -10.9610    20.2590 f          1 5UR      -0.231967
     24 CA          17.2200    -5.6970    18.4020 c3         1 5UR       0.045300
     25 N           17.7920    -4.6950    19.2660 na         1 5UR      -0.193900
     26 N2          18.5990    -3.7540    21.0870 nd         1 5UR      -0.671000
     27 C19         17.9790    -4.7960    20.6010 cc         1 5UR       0.398400
     28 H1          19.0360    -8.1680    21.0270 ha         1 5UR       0.149000
     29 H2          20.0930    -9.2520    22.9550 ha         1 5UR       0.146000
     30 H3          22.7030    -8.4950    18.8330 ha         1 5UR       0.171000
     31 H4          18.3330    -3.1790    17.8470 h4         1 5UR       0.176000
     32 H5          19.3380    -1.9910    20.1160 h4         1 5UR       0.040100
     33 H6          16.3140   -10.6550    16.7340 ha         1 5UR       0.156000
     34 H7          17.4280    -9.0930    18.2450 ha         1 5UR       0.148000
     35 H8          16.5910    -7.7810    13.5620 ha         1 5UR       0.167000
     36 H9          18.9960    -5.9020    17.2090 h1         1 5UR       0.096700
     37 H10         22.4370    -9.9540    22.8640 ha         1 5UR       0.153000
     38 H11         16.6240    -5.2070    17.6320 h1         1 5UR       0.077200
     39 H12         16.5460    -6.3250    18.9850 h1         1 5UR       0.077200
     40 H13         17.6300    -5.6510    21.1630 h5         1 5UR       0.051100
     41 C15         24.1570    -9.7220    20.7650 c3         1 5UR       0.724200
@<TRIPOS>BOND
     1     1    12 ar  
     2     1    13 ar  
     3     1    16 1   
     4     2     3 1   
     5     2    17 1   
     6     2    18 2   
     7     3     4 ar  
     8     3     6 ar  
     9     4     5 ar  
    10     4    28 1   
    11     5    19 ar  
    12     5    29 1   
    13     6    20 ar  
    14     6    30 1   
    15     7     8 2   
    16     7    25 1   
    17     7    31 1   
    18     8    26 1   
    19     8    32 1   
    20     9    10 1   
    21    10    11 ar  
    22    10    14 ar  
    23    11    12 ar  
    24    11    33 1   
    25    12    34 1   
    26    13    14 ar  
    27    13    15 1   
    28    14    35 1   
    29    16    17 1   
    30    16    24 1   
    31    16    36 1   
    32    19    20 ar  
    33    19    37 1   
    34    20    41 1   
    35    21    41 1   
    36    22    41 1   
    37    23    41 1   
    38    24    25 1   
    39    24    38 1   
    40    24    39 1   
    41    25    27 1   
    42    26    27 2   
    43    27    40 1   
@<TRIPOS>SUBSTRUCTURE
     1 5UR         1 TEMP              0 ****  ****    0 ROOT
