@<TRIPOS>MOLECULE
5US
   54    56     1     0     0
SMALL
No Charge or Current Charge


@<TRIPOS>ATOM
      1 C10          4.5880    -0.0720     1.7060 c6         1 5US       0.123300
      2 C13          3.8790    -0.7520    -1.0870 c6         1 5US       0.172300
      3 C15          3.8070    -1.7880    -2.2570 c3         1 5US       0.169600
      4 C20         -3.1770     0.7470    -0.4420 cp         1 5US      -0.029000
      5 C21         -3.6600     1.5240    -1.5210 ca         1 5US      -0.084000
      6 C22         -5.0240     1.5360    -1.8470 ca         1 5US      -0.120000
      7 C24         -5.4950    -0.0160    -0.0150 ca         1 5US      -0.149600
      8 C26         -6.4460    -0.8520     0.8190 c          1 5US       0.609700
      9 C02          0.4430     1.8960     0.1130 ca         1 5US      -0.106300
     10 C03         -0.9280     1.8990    -0.2120 ca         1 5US      -0.070000
     11 C04         -1.7200     0.7310    -0.0930 cp         1 5US      -0.069000
     12 C05         -1.0900    -0.4500     0.3660 ca         1 5US      -0.063000
     13 C06          0.2760    -0.4660     0.6930 ca         1 5US      -0.168000
     14 C07          1.0520     0.7070     0.5660 ca         1 5US       0.148100
     15 O08          2.3990     0.7460     0.8840 os         1 5US      -0.389100
     16 C09          3.1410    -0.4440     1.2230 c6         1 5US       0.359300
     17 C11          5.3640     0.5720     0.5180 c6         1 5US       0.142300
     18 C12          5.3490    -0.3710    -0.7260 c6         1 5US       0.145300
     19 O14          3.2080    -1.3220     0.0720 os         1 5US      -0.444000
     20 O16          2.4620    -2.1970    -2.5850 oh         1 5US      -0.710000
     21 O17          6.0320     0.2640    -1.8270 oh         1 5US      -0.723000
     22 O18          6.7200     0.8490     0.9130 oh         1 5US      -0.651000
     23 O19          5.3350    -1.2210     2.1890 oh         1 5US      -0.689000
     24 C23         -5.9380     0.7740    -1.1030 ca         1 5US      -0.091000
     25 C25         -4.1150    -0.0160     0.2980 ca         1 5US      -0.053000
     26 O27         -6.0630    -1.5360     1.7590 o          1 5US      -0.602100
     27 N28         -7.7780    -0.8090     0.4700 ns         1 5US      -0.505900
     28 C29         -8.8380    -1.5480     1.1600 c3         1 5US       0.095300
     29 H101         4.4960     0.6760     2.5070 h1         1 5US       0.050700
     30 H131         3.3380     0.1520    -1.4060 h1         1 5US       0.071700
     31 H151         4.2840    -1.3410    -3.1400 h1         1 5US       0.036200
     32 H152         4.4070    -2.6630    -1.9730 h1         1 5US       0.036200
     33 H211        -2.9700     2.1120    -2.1210 ha         1 5US       0.117000
     34 H221        -5.3750     2.1380    -2.6830 ha         1 5US       0.115000
     35 H013         2.0960     3.0350    -0.7220 hc         1 5US       0.040700
     36 H011         0.6530     4.0090    -0.4080 hc         1 5US       0.040700
     37 H012         1.6730     3.4870     0.9390 hc         1 5US       0.040700
     38 H031        -1.3890     2.8240    -0.5490 ha         1 5US       0.114000
     39 H051        -1.6620    -1.3710     0.4570 ha         1 5US       0.118000
     40 H061         0.7110    -1.3990     1.0360 ha         1 5US       0.131000
     41 H091         2.6270    -0.9610     2.0470 h2         1 5US       0.077700
     42 H111         4.8580     1.5110     0.2440 h1         1 5US       0.060700
     43 H121         5.8730    -1.3000    -0.4550 h1         1 5US       0.070700
     44 H161         2.5340    -2.8920    -3.2790 ho         1 5US       0.502000
     45 H171         6.8020     0.7290    -1.4180 ho         1 5US       0.523000
     46 H181         6.9360     0.1350     1.5580 ho         1 5US       0.448000
     47 H191         4.8640    -1.5730     2.9810 ho         1 5US       0.505000
     48 H231        -6.9870     0.8100    -1.3860 ha         1 5US       0.110000
     49 H251        -3.7620    -0.6070     1.1400 ha         1 5US       0.137000
     50 H281        -8.0290    -0.2240    -0.3160 hn         1 5US       0.316500
     51 H291        -8.6340    -2.6260     1.1030 h1         1 5US       0.040367
     52 H293        -8.8810    -1.2390     2.2120 h1         1 5US       0.040367
     53 H292        -9.8030    -1.3370     0.6810 h1         1 5US       0.040367
     54 C01          1.2580     3.1770    -0.0280 c3         1 5US      -0.032800
@<TRIPOS>BOND
     1     1    16 1   
     2     1    17 1   
     3     1    23 1   
     4     1    29 1   
     5     2     3 1   
     6     2    18 1   
     7     2    19 1   
     8     2    30 1   
     9     3    20 1   
    10     3    31 1   
    11     3    32 1   
    12     4     5 ar  
    13     4    11 1   
    14     4    25 ar  
    15     5     6 ar  
    16     5    33 1   
    17     6    24 ar  
    18     6    34 1   
    19     7     8 1   
    20     7    24 ar  
    21     7    25 ar  
    22     8    26 2   
    23     8    27 1   
    24     9    10 ar  
    25     9    14 ar  
    26     9    54 1   
    27    10    11 ar  
    28    10    38 1   
    29    11    12 ar  
    30    12    13 ar  
    31    12    39 1   
    32    13    14 ar  
    33    13    40 1   
    34    14    15 1   
    35    15    16 1   
    36    16    19 1   
    37    16    41 1   
    38    17    18 1   
    39    17    22 1   
    40    17    42 1   
    41    18    21 1   
    42    18    43 1   
    43    20    44 1   
    44    21    45 1   
    45    22    46 1   
    46    23    47 1   
    47    24    48 1   
    48    25    49 1   
    49    27    28 1   
    50    27    50 1   
    51    28    51 1   
    52    28    52 1   
    53    28    53 1   
    54    35    54 1   
    55    36    54 1   
    56    37    54 1   
@<TRIPOS>SUBSTRUCTURE
     1 5US         1 TEMP              0 ****  ****    0 ROOT
