@<TRIPOS>MOLECULE
5US
   54    56     1     0     0
SMALL
abcg2


@<TRIPOS>ATOM
      1 C10          4.4450    -0.0940     1.6170 c6         1 5US       0.123300
      2 C13          3.7970    -0.8750    -1.0950 c6         1 5US       0.172300
      3 C15          3.7710    -1.9630    -2.1480 c3         1 5US       0.169600
      4 C20         -3.1410     0.8650    -0.3640 cp         1 5US      -0.029000
      5 C21         -3.5970     1.7020    -1.3850 ca         1 5US      -0.084000
      6 C22         -4.9480     1.7820    -1.6830 ca         1 5US      -0.120000
      7 C24         -5.4330     0.1760     0.0400 ca         1 5US      -0.149600
      8 C26         -6.3730    -0.6450     0.8660 c          1 5US       0.609700
      9 C02          0.4700     1.8500     0.2090 ca         1 5US      -0.106300
     10 C03         -0.8830     1.9040    -0.0860 ca         1 5US      -0.070000
     11 C04         -1.7040     0.7740    -0.0420 cp         1 5US      -0.069000
     12 C05         -1.1190    -0.4380     0.3080 ca         1 5US      -0.063000
     13 C06          0.2340    -0.5280     0.6010 ca         1 5US      -0.168000
     14 C07          1.0260     0.6140     0.5640 ca         1 5US       0.148100
     15 O08          2.3470     0.6460     0.8620 os         1 5US      -0.389100
     16 C09          3.0560    -0.5360     1.1430 c6         1 5US       0.359300
     17 C11          5.2060     0.5050     0.4370 c6         1 5US       0.142300
     18 C12          5.2280    -0.4680    -0.7370 c6         1 5US       0.145300
     19 O14          3.1260    -1.3830     0.0490 os         1 5US      -0.444000
     20 O16          2.4350    -2.2210    -2.5040 oh         1 5US      -0.710000
     21 O17          5.8000     0.1280    -1.8770 oh         1 5US      -0.723000
     22 O18          6.5410     0.8120     0.7590 oh         1 5US      -0.651000
     23 O19          5.1600    -1.2030     2.0940 oh         1 5US      -0.689000
     24 C23         -5.8690     1.0210    -0.9790 ca         1 5US      -0.091000
     25 C25         -4.0770     0.1180     0.3460 ca         1 5US      -0.053000
     26 O27         -6.0850    -0.9830     2.0070 o          1 5US      -0.602100
     27 N28         -7.5320    -0.9870     0.2860 ns         1 5US      -0.505900
     28 C29         -8.5320    -1.7680     0.9750 c3         1 5US       0.095300
     29 H101         4.3210     0.6690     2.3970 h1         1 5US       0.050700
     30 H131         3.2700     0.0060    -1.4880 h1         1 5US       0.071700
     31 H151         4.3600    -1.6220    -3.0060 h1         1 5US       0.036200
     32 H152         4.2700    -2.8580    -1.7500 h1         1 5US       0.036200
     33 H211        -2.8920     2.2870    -1.9620 ha         1 5US       0.117000
     34 H221        -5.2870     2.4390    -2.4730 ha         1 5US       0.115000
     35 H013         2.1560     2.9680    -0.5340 hc         1 5US       0.040700
     36 H011         0.7410     3.9450    -0.1550 hc         1 5US       0.040700
     37 H012         1.7550     3.3130     1.1390 hc         1 5US       0.040700
     38 H031        -1.3110     2.8650    -0.3440 ha         1 5US       0.114000
     39 H051        -1.7140    -1.3420     0.3260 ha         1 5US       0.118000
     40 H061         0.6440    -1.4980     0.8390 ha         1 5US       0.131000
     41 H091         2.5530    -1.1050     1.9340 h2         1 5US       0.077700
     42 H111         4.6700     1.4070     0.1140 h1         1 5US       0.060700
     43 H121         5.7870    -1.3690    -0.4420 h1         1 5US       0.070700
     44 H161         2.4400    -2.8700    -3.2130 ho         1 5US       0.502000
     45 H171         6.6770     0.4450    -1.6340 ho         1 5US       0.523000
     46 H181         6.5600     1.6460     1.2380 ho         1 5US       0.448000
     47 H191         4.7910    -1.4670     2.9420 ho         1 5US       0.505000
     48 H231        -6.9200     1.1150    -1.2180 ha         1 5US       0.110000
     49 H251        -3.7490    -0.5120     1.1630 ha         1 5US       0.137000
     50 H281        -7.6790    -0.7890    -0.6890 hn         1 5US       0.316500
     51 H291        -8.1770    -2.7730     1.2090 h1         1 5US       0.040367
     52 H293        -8.8350    -1.2880     1.9050 h1         1 5US       0.040367
     53 H292        -9.4040    -1.8520     0.3330 h1         1 5US       0.040367
     54 C01          1.3240     3.0820     0.1630 c3         1 5US      -0.032800
@<TRIPOS>BOND
     1     1    16 1   
     2     1    17 1   
     3     1    23 1   
     4     1    29 1   
     5     2     3 1   
     6     2    18 1   
     7     2    19 1   
     8     2    30 1   
     9     3    20 1   
    10     3    31 1   
    11     3    32 1   
    12     4     5 ar  
    13     4    11 1   
    14     4    25 ar  
    15     5     6 ar  
    16     5    33 1   
    17     6    24 ar  
    18     6    34 1   
    19     7     8 1   
    20     7    24 ar  
    21     7    25 ar  
    22     8    26 2   
    23     8    27 1   
    24     9    10 ar  
    25     9    14 ar  
    26     9    54 1   
    27    10    11 ar  
    28    10    38 1   
    29    11    12 ar  
    30    12    13 ar  
    31    12    39 1   
    32    13    14 ar  
    33    13    40 1   
    34    14    15 1   
    35    15    16 1   
    36    16    19 1   
    37    16    41 1   
    38    17    18 1   
    39    17    22 1   
    40    17    42 1   
    41    18    21 1   
    42    18    43 1   
    43    20    44 1   
    44    21    45 1   
    45    22    46 1   
    46    23    47 1   
    47    24    48 1   
    48    25    49 1   
    49    27    28 1   
    50    27    50 1   
    51    28    51 1   
    52    28    52 1   
    53    28    53 1   
    54    35    54 1   
    55    36    54 1   
    56    37    54 1   
@<TRIPOS>SUBSTRUCTURE
     1 5US         1 TEMP              0 ****  ****    0 ROOT
