@<TRIPOS>MOLECULE
5UT
   59    62     1     0     0
SMALL
No Charge or Current Charge


@<TRIPOS>ATOM
      1 C1           5.4270    -2.0520     0.6430 cx         1 5UT      -0.063700
      2 C2           5.0100    -0.8120    -0.1120 ca         1 5UT      -0.023300
      3 C3           5.8560    -0.1950    -1.0640 ca         1 5UT       0.116000
      4 C4           5.4370     0.9610    -1.7430 ca         1 5UT      -0.160000
      5 C5           4.1750     1.5190    -1.4810 ca         1 5UT       0.080100
      6 C6           3.3200     0.9140    -0.5220 ca         1 5UT       0.306000
      7 C10         -2.7410    -0.8190     1.4180 c6         1 5UT       0.146800
      8 C11         -5.1950    -0.9080     1.0400 cy         1 5UT       0.152500
      9 C14         -8.0270     0.0090    -2.0150 ce         1 5UT      -0.296200
     10 C18         -2.7420     2.0970     1.4180 c6         1 5UT       0.095500
     11 C20          4.4700    -3.2230     0.7440 cx         1 5UT      -0.120900
     12 O2          -0.4760     2.7610    -0.1640 o          1 5UT      -0.600100
     13 C8          -0.3870     1.7420     0.5170 c          1 5UT       0.599100
     14 C7           0.9270     0.8810     0.5160 c3         1 5UT       0.135800
     15 N            2.0630     1.4760    -0.2580 nu         1 5UT      -0.944200
     16 O            3.7860     2.6520    -2.1590 oh         1 5UT      -0.539100
     17 Cl           7.4600    -0.8340    -1.4300 cl         1 5UT      -0.210000
     18 C19          3.7480    -0.2420     0.1550 ca         1 5UT      -0.164000
     19 C21          5.7110    -3.3400    -0.1030 cx         1 5UT      -0.120900
     20 C            6.2690    -1.7030     1.8680 c3         1 5UT      -0.054100
     21 N1          -1.4590     1.3430     1.3540 n          1 5UT      -0.409800
     22 C17         -3.9170     1.2660     0.8340 c6         1 5UT       0.146800
     23 N2          -4.0330    -0.0730     1.5000 n3         1 5UT      -0.714600
     24 C9          -1.5590     0.0030     2.0020 c6         1 5UT       0.095500
     25 C16         -6.6200    -0.2530     0.9970 cy         1 5UT       0.085000
     26 N3          -6.4660    -0.1270    -0.4960 nj         1 5UT      -0.427800
     27 C12         -5.3730    -1.1630    -0.4990 cy         1 5UT       0.085000
     28 C13         -7.5690    -0.9240    -0.9260 c          1 5UT       0.615300
     29 O1          -8.0640    -2.0190    -0.6730 o          1 5UT      -0.607100
     30 C15         -8.8890    -0.3650    -2.9930 c2         1 5UT      -0.233000
     31 H1           6.1010     1.4190    -2.4710 ha         1 5UT       0.127000
     32 H2          -2.8130    -1.7680     1.9710 h1         1 5UT       0.045950
     33 H3          -2.5110    -1.0710     0.3720 h1         1 5UT       0.045950
     34 H4          -5.2220    -1.8490     1.6020 h1         1 5UT       0.075700
     35 H5          -7.6080     1.0170    -2.0510 ha         1 5UT       0.176000
     36 H7          -2.9610     2.3350     2.4690 h1         1 5UT       0.064700
     37 H8          -2.6720     3.0520     0.8800 h1         1 5UT       0.064700
     38 H9           4.4390    -3.7830     1.6760 hc         1 5UT       0.072700
     39 H10          3.5160    -3.1560     0.2260 hc         1 5UT       0.072700
     40 H11          1.2250     0.7340     1.5620 h1         1 5UT       0.051200
     41 H12          0.6690    -0.1020     0.0990 h1         1 5UT       0.051200
     42 H13          1.8550     2.3180    -0.8080 hn         1 5UT       0.519000
     43 H14          4.5050     2.9190    -2.7720 ho         1 5UT       0.468000
     44 H15          3.1040    -0.7030     0.8970 ha         1 5UT       0.115000
     45 H16          5.5830    -3.3420    -1.1830 hc         1 5UT       0.072700
     46 H17          6.5150    -3.9750     0.2590 hc         1 5UT       0.072700
     47 H18          7.1820    -1.1680     1.5810 hc         1 5UT       0.039367
     48 H19          5.7060    -1.0610     2.5570 hc         1 5UT       0.039367
     49 H20          6.5700    -2.6010     2.4220 hc         1 5UT       0.039367
     50 H21         -4.8410     1.8470     0.9580 h1         1 5UT       0.045950
     51 H22         -3.7520     1.1460    -0.2470 h1         1 5UT       0.045950
     52 H24         -1.7250     0.1460     3.0800 h1         1 5UT       0.064700
     53 H25         -0.6350    -0.5770     1.8970 h1         1 5UT       0.064700
     54 H26         -7.4140    -0.9100     1.3730 h1         1 5UT       0.059700
     55 H27         -6.6830     0.7160     1.5030 h1         1 5UT       0.059700
     56 H28         -4.5110    -0.8640    -1.1050 h1         1 5UT       0.059700
     57 H29         -5.6520    -2.1950    -0.7440 h1         1 5UT       0.059700
     58 H30         -9.3220    -1.3660    -3.0290 ha         1 5UT       0.176000
     59 H31         -9.1870     0.3210    -3.7880 ha         1 5UT       0.176000
@<TRIPOS>BOND
     1     1     2 1   
     2     1    11 1   
     3     1    19 1   
     4     1    20 1   
     5     2     3 ar  
     6     2    18 ar  
     7     3     4 ar  
     8     3    17 1   
     9     4     5 ar  
    10     4    31 1   
    11     5     6 ar  
    12     5    16 1   
    13     6    15 1   
    14     6    18 ar  
    15     7    23 1   
    16     7    24 1   
    17     7    32 1   
    18     7    33 1   
    19     8    23 1   
    20     8    25 1   
    21     8    27 1   
    22     8    34 1   
    23     9    28 1   
    24     9    30 2   
    25     9    35 1   
    26    10    21 1   
    27    10    22 1   
    28    10    36 1   
    29    10    37 1   
    30    11    19 1   
    31    11    38 1   
    32    11    39 1   
    33    12    13 2   
    34    13    14 1   
    35    13    21 1   
    36    14    15 1   
    37    14    40 1   
    38    14    41 1   
    39    15    42 1   
    40    16    43 1   
    41    18    44 1   
    42    19    45 1   
    43    19    46 1   
    44    20    47 1   
    45    20    48 1   
    46    20    49 1   
    47    21    24 1   
    48    22    23 1   
    49    22    50 1   
    50    22    51 1   
    51    24    52 1   
    52    24    53 1   
    53    25    26 1   
    54    25    54 1   
    55    25    55 1   
    56    26    27 1   
    57    26    28 1   
    58    27    56 1   
    59    27    57 1   
    60    28    29 2   
    61    30    58 1   
    62    30    59 1   
@<TRIPOS>SUBSTRUCTURE
     1 5UT         1 TEMP              0 ****  ****    0 ROOT
