@<TRIPOS>MOLECULE
5UT
   59    62     1     0     0
SMALL
abcg2


@<TRIPOS>ATOM
      1 C1           5.2310    -2.0010     0.5900 cx         1 5UT      -0.063700
      2 C2           4.8360    -0.7470    -0.1200 ca         1 5UT      -0.023300
      3 C3           5.7370     0.0180    -0.8400 ca         1 5UT       0.116000
      4 C4           5.3530     1.2050    -1.4580 ca         1 5UT      -0.160000
      5 C5           4.0520     1.6500    -1.3570 ca         1 5UT       0.080100
      6 C6           3.1010     0.9130    -0.6190 ca         1 5UT       0.306000
      7 C10         -2.6110    -0.8770     1.3500 c6         1 5UT       0.146800
      8 C11         -4.9940    -0.9650     1.1780 cy         1 5UT       0.152500
      9 C14         -7.6020    -0.6650    -2.2440 ce         1 5UT      -0.296200
     10 C18         -2.6350     1.9620     1.2930 c6         1 5UT       0.095500
     11 C20          4.3260    -3.1930     0.4790 cx         1 5UT      -0.120900
     12 O2          -0.3970     2.7530    -0.1470 o          1 5UT      -0.600100
     13 C8          -0.3700     1.6760     0.4340 c          1 5UT       0.599100
     14 C7           0.8680     0.7930     0.3550 c3         1 5UT       0.135800
     15 N            1.8100     1.3690    -0.5540 nu         1 5UT      -0.944200
     16 O            3.6110     2.7890    -1.9360 oh         1 5UT      -0.539100
     17 CL           7.3970    -0.4780    -1.0000 cl         1 5UT      -0.210000
     18 C19          3.5260    -0.2700    -0.0200 ca         1 5UT      -0.164000
     19 C21          5.6470    -3.1840    -0.2310 cx         1 5UT      -0.120900
     20 C            5.9270    -1.7720     1.9140 c3         1 5UT      -0.054100
     21 N1          -1.3900     1.2240     1.1830 n          1 5UT      -0.409800
     22 C17         -3.7870     1.1220     0.7680 c6         1 5UT       0.146800
     23 N2          -3.8560    -0.1410     1.4840 n3         1 5UT      -0.714600
     24 C9          -1.4440    -0.0520     1.8690 c6         1 5UT       0.095500
     25 C16         -6.3860    -0.3130     1.3350 cy         1 5UT       0.085000
     26 N3          -6.6140    -0.5450    -0.0790 nj         1 5UT      -0.427800
     27 C12         -5.3590    -1.2480    -0.3130 cy         1 5UT       0.085000
     28 C13         -7.6880    -0.2570    -0.8180 c          1 5UT       0.615300
     29 O1          -8.6650     0.3120    -0.3390 o          1 5UT      -0.607100
     30 C15         -8.5980    -0.4310    -3.0920 c2         1 5UT      -0.233000
     31 H1           6.0750     1.7800    -2.0270 ha         1 5UT       0.127000
     32 H2          -2.6730    -1.7960     1.9360 h1         1 5UT       0.045950
     33 H3          -2.4070    -1.1660     0.3050 h1         1 5UT       0.045950
     34 H4          -4.9030    -1.8840     1.7570 h1         1 5UT       0.075700
     35 H5          -6.7010    -1.1600    -2.5860 ha         1 5UT       0.176000
     36 H7          -2.8080     2.2090     2.3450 h1         1 5UT       0.064700
     37 H8          -2.5670     2.8900     0.7340 h1         1 5UT       0.064700
     38 H9           4.2140    -3.8230     1.3530 hc         1 5UT       0.072700
     39 H10          3.4280    -3.1110    -0.1230 hc         1 5UT       0.072700
     40 H11          1.2780     0.6800     1.3700 h1         1 5UT       0.051200
     41 H12          0.5850    -0.2120     0.0240 h1         1 5UT       0.051200
     42 H13          1.6550     2.3440    -0.7620 hn         1 5UT       0.519000
     43 H14          4.3310     3.2430    -2.3860 ho         1 5UT       0.468000
     44 H15          2.8240    -0.8620     0.5530 ha         1 5UT       0.115000
     45 H16          5.6380    -3.0880    -1.3100 hc         1 5UT       0.072700
     46 H17          6.4460    -3.8080     0.1520 hc         1 5UT       0.072700
     47 H18          6.8460    -1.1980     1.7870 hc         1 5UT       0.039367
     48 H19          5.2820    -1.2240     2.6040 hc         1 5UT       0.039367
     49 H20          6.1920    -2.7190     2.3860 hc         1 5UT       0.039367
     50 H21         -4.7090     1.6870     0.9110 h1         1 5UT       0.045950
     51 H22         -3.6540     0.9860    -0.3170 h1         1 5UT       0.045950
     52 H24         -1.5740     0.1310     2.9400 h1         1 5UT       0.064700
     53 H25         -0.5210    -0.6140     1.7520 h1         1 5UT       0.064700
     54 H26         -7.0680    -0.8640     1.9860 h1         1 5UT       0.059700
     55 H27         -6.4010     0.7380     1.6300 h1         1 5UT       0.059700
     56 H28         -4.7110    -0.7880    -1.0620 h1         1 5UT       0.059700
     57 H29         -5.4840    -2.3050    -0.5560 h1         1 5UT       0.059700
     58 H30         -9.5080     0.0640    -2.7790 ha         1 5UT       0.176000
     59 H31         -8.5310    -0.7280    -4.1300 ha         1 5UT       0.176000
@<TRIPOS>BOND
     1     1     2 1   
     2     1    11 1   
     3     1    19 1   
     4     1    20 1   
     5     2     3 ar  
     6     2    18 ar  
     7     3     4 ar  
     8     3    17 1   
     9     4     5 ar  
    10     4    31 1   
    11     5     6 ar  
    12     5    16 1   
    13     6    15 1   
    14     6    18 ar  
    15     7    23 1   
    16     7    24 1   
    17     7    32 1   
    18     7    33 1   
    19     8    23 1   
    20     8    25 1   
    21     8    27 1   
    22     8    34 1   
    23     9    28 1   
    24     9    30 2   
    25     9    35 1   
    26    10    21 1   
    27    10    22 1   
    28    10    36 1   
    29    10    37 1   
    30    11    19 1   
    31    11    38 1   
    32    11    39 1   
    33    12    13 2   
    34    13    14 1   
    35    13    21 1   
    36    14    15 1   
    37    14    40 1   
    38    14    41 1   
    39    15    42 1   
    40    16    43 1   
    41    18    44 1   
    42    19    45 1   
    43    19    46 1   
    44    20    47 1   
    45    20    48 1   
    46    20    49 1   
    47    21    24 1   
    48    22    23 1   
    49    22    50 1   
    50    22    51 1   
    51    24    52 1   
    52    24    53 1   
    53    25    26 1   
    54    25    54 1   
    55    25    55 1   
    56    26    27 1   
    57    26    28 1   
    58    27    56 1   
    59    27    57 1   
    60    28    29 2   
    61    30    58 1   
    62    30    59 1   
@<TRIPOS>SUBSTRUCTURE
     1 5UT         1 TEMP              0 ****  ****    0 ROOT
