@<TRIPOS>MOLECULE
5UU
   39    42     1     0     0
SMALL
bcc


@<TRIPOS>ATOM
      1 C10         -2.2000     0.7080    -0.6040 ca         1 5UU       0.142600
      2 C13         -3.7420     2.7640     0.4320 ca         1 5UU       0.106900
      3 C17         -2.0100     1.1440     0.7070 ca         1 5UU      -0.148500
      4 C20         -3.9680     2.3380    -0.8630 ca         1 5UU      -0.139000
      5 C21          1.2610    -4.0930     0.5360 c6         1 5UU      -0.135700
      6 C22         -0.9080    -4.6100    -0.5440 c6         1 5UU      -0.073400
      7 C01         -0.2750    -0.8340    -0.6300 ca         1 5UU       0.202600
      8 C02          0.8200     0.0380    -0.3630 ca         1 5UU      -0.169300
      9 N03          2.0590    -1.8400     0.5380 nb         1 5UU      -0.688000
     10 C04          1.9600    -0.5270     0.2510 ca         1 5UU       0.426600
     11 C05         -0.1330    -2.1900    -0.3930 ca         1 5UU      -0.248600
     12 C06          1.0710    -2.6370     0.2080 ca         1 5UU       0.470600
     13 N07         -1.4470    -0.3290    -1.1670 nu         1 5UU      -0.657000
     14 C08          3.0610     0.3020     0.5710 ca         1 5UU      -0.170300
     15 C09          0.8410     1.4060    -0.7120 ca         1 5UU      -0.084000
     16 C11          3.0250     1.6270     0.2460 ca         1 5UU       0.040400
     17 C12          1.9200     2.1930    -0.4170 ca         1 5UU      -0.134000
     18 CL14         4.3710     2.6470     0.6290 cl         1 5UU      -0.106400
     19 F15         -4.4850     3.7660     0.9340 f          1 5UU      -0.142900
     20 C16         -1.2720    -3.1370    -0.6840 c6         1 5UU      -0.020100
     21 C18         -3.1870     1.3170    -1.3790 ca         1 5UU      -0.148500
     22 C19         -2.7720     2.1810     1.2230 ca         1 5UU      -0.139000
     23 C23         -0.0520    -4.8440     0.6890 c6         1 5UU      -0.074400
     24 H1          -1.2710     0.6750     1.3420 ha         1 5UU       0.144000
     25 H2          -4.7330     2.8040    -1.4700 ha         1 5UU       0.151500
     26 H4           1.8740    -4.1670     1.4360 hc         1 5UU       0.065700
     27 H5          -1.8230    -5.2030    -0.5080 hc         1 5UU       0.044700
     28 H6          -0.3570    -4.9410    -1.4290 hc         1 5UU       0.044700
     29 H7          -1.9850    -0.9750    -1.7240 hn         1 5UU       0.431800
     30 H8           3.9200    -0.1410     1.0570 ha         1 5UU       0.164000
     31 H9           0.0080     1.8490    -1.2380 ha         1 5UU       0.148000
     32 H10          1.9300     3.2370    -0.6970 ha         1 5UU       0.150000
     33 H11         -1.6590    -2.9710    -1.6940 hc         1 5UU       0.043700
     34 H12         -2.0970    -2.9000    -0.0030 hc         1 5UU       0.043700
     35 H13         -3.3450     0.9930    -2.4000 ha         1 5UU       0.144000
     36 H14         -2.6170     2.5170     2.2400 ha         1 5UU       0.151500
     37 H15          0.1440    -5.9080     0.8280 hc         1 5UU       0.047700
     38 H16         -0.5800    -4.4990     1.5840 hc         1 5UU       0.047700
     39 H3           1.8440    -4.5540    -0.2690 hc         1 5UU       0.065700
@<TRIPOS>BOND
     1     1     3 ar  
     2     1    13 1   
     3     1    21 ar  
     4     2     4 ar  
     5     2    19 1   
     6     2    22 ar  
     7     3    22 ar  
     8     3    24 1   
     9     4    21 ar  
    10     4    25 1   
    11     5    12 1   
    12     5    23 1   
    13     5    26 1   
    14     5    39 1   
    15     6    20 1   
    16     6    23 1   
    17     6    27 1   
    18     6    28 1   
    19     7     8 ar  
    20     7    11 ar  
    21     7    13 1   
    22     8    10 ar  
    23     8    15 ar  
    24     9    10 ar  
    25     9    12 ar  
    26    10    14 ar  
    27    11    12 ar  
    28    11    20 1   
    29    13    29 1   
    30    14    16 ar  
    31    14    30 1   
    32    15    17 ar  
    33    15    31 1   
    34    16    17 ar  
    35    16    18 1   
    36    17    32 1   
    37    20    33 1   
    38    20    34 1   
    39    21    35 1   
    40    22    36 1   
    41    23    37 1   
    42    23    38 1   
@<TRIPOS>SUBSTRUCTURE
     1 5UU         1 TEMP              0 ****  ****    0 ROOT
