@<TRIPOS>MOLECULE
5UU
   39    42     1     0     0
SMALL
No Charge or Current Charge


@<TRIPOS>ATOM
      1 C10         -2.2360     0.7670    -0.5910 ca         1 5UU       0.281000
      2 C13         -4.0140     2.7270     0.3740 ca         1 5UU       0.142000
      3 C17         -2.0310     1.3510     0.6750 ca         1 5UU      -0.130500
      4 C20         -4.2320     2.1430    -0.8840 ca         1 5UU      -0.121000
      5 C21          1.2550    -4.1380     0.5390 c6         1 5UU      -0.135700
      6 C22         -0.9680    -4.5750    -0.5820 c6         1 5UU      -0.073400
      7 C01         -0.1800    -0.7560    -0.5870 ca         1 5UU       0.341000
      8 C02          0.9560     0.0480    -0.3200 ca         1 5UU      -0.104000
      9 N03          2.1530    -1.8910     0.4900 nb         1 5UU      -0.688000
     10 C04          2.1070    -0.5690     0.2290 ca         1 5UU       0.296000
     11 C05         -0.1090    -2.1420    -0.3480 ca         1 5UU      -0.183300
     12 C06          1.0790    -2.6540     0.2090 ca         1 5UU       0.405300
     13 N07         -1.3750    -0.2140    -1.0850 nu         1 5UU      -0.989000
     14 C08          3.2400     0.2140     0.5090 ca         1 5UU      -0.087000
     15 C09          0.9810     1.4350    -0.6080 ca         1 5UU      -0.066000
     16 C11          3.2490     1.5890     0.2390 ca         1 5UU       0.132000
     17 C12          2.1230     2.2000    -0.3240 ca         1 5UU      -0.116000
     18 Cl14         4.6810     2.5460     0.5960 cl         1 5UU      -0.198000
     19 F15         -4.8660     3.6680     0.8350 f          1 5UU      -0.178000
     20 C16         -1.3140    -3.0690    -0.6190 c6         1 5UU      -0.020100
     21 C18         -3.3430     1.1620    -1.3630 ca         1 5UU      -0.130500
     22 C19         -2.9180     2.3330     1.1570 ca         1 5UU      -0.121000
     23 C23         -0.0820    -4.9060     0.6340 c6         1 5UU      -0.074400
     24 H1          -1.1910     1.0420     1.2900 ha         1 5UU       0.126000
     25 H2          -5.0850     2.4510    -1.4840 ha         1 5UU       0.133500
     26 H4           1.8060    -4.2510     1.4830 hc         1 5UU       0.065700
     27 H5          -1.8910    -5.1700    -0.5510 hc         1 5UU       0.044700
     28 H6          -0.4450    -4.8580    -1.5060 hc         1 5UU       0.044700
     29 H7          -1.8020    -0.7940    -1.8070 hn         1 5UU       0.487000
     30 H8           4.1220    -0.2530     0.9350 ha         1 5UU       0.146000
     31 H9           0.1270     1.9300    -1.0620 ha         1 5UU       0.130000
     32 H10          2.1350     3.2650    -0.5440 ha         1 5UU       0.132000
     33 H11         -1.7630    -2.8430    -1.5960 hc         1 5UU       0.043700
     34 H12         -2.0920    -2.8630     0.1300 hc         1 5UU       0.043700
     35 H13         -3.5130     0.7130    -2.3390 ha         1 5UU       0.126000
     36 H14         -2.7580     2.7840     2.1330 ha         1 5UU       0.133500
     37 H15          0.1080    -5.9870     0.6840 hc         1 5UU       0.047700
     38 H16         -0.6060    -4.6330     1.5610 hc         1 5UU       0.047700
     39 H3           1.8820    -4.5950    -0.2380 hc         1 5UU       0.065700
@<TRIPOS>BOND
     1     1     3 ar  
     2     1    13 1   
     3     1    21 ar  
     4     2     4 ar  
     5     2    19 1   
     6     2    22 ar  
     7     3    22 ar  
     8     3    24 1   
     9     4    21 ar  
    10     4    25 1   
    11     5    12 1   
    12     5    23 1   
    13     5    26 1   
    14     5    39 1   
    15     6    20 1   
    16     6    23 1   
    17     6    27 1   
    18     6    28 1   
    19     7     8 ar  
    20     7    11 ar  
    21     7    13 1   
    22     8    10 ar  
    23     8    15 ar  
    24     9    10 ar  
    25     9    12 ar  
    26    10    14 ar  
    27    11    12 ar  
    28    11    20 1   
    29    13    29 1   
    30    14    16 ar  
    31    14    30 1   
    32    15    17 ar  
    33    15    31 1   
    34    16    17 ar  
    35    16    18 1   
    36    17    32 1   
    37    20    33 1   
    38    20    34 1   
    39    21    35 1   
    40    22    36 1   
    41    23    37 1   
    42    23    38 1   
@<TRIPOS>SUBSTRUCTURE
     1 5UU         1 TEMP              0 ****  ****    0 ROOT
