@<TRIPOS>MOLECULE
5UV
   39    42     1     0     0
SMALL
abcg2


@<TRIPOS>ATOM
      1 C10         -1.4300     0.3660     0.3000 ca         1 5UV       0.301000
      2 C13          3.5280    -1.5780    -0.8410 ca         1 5UV      -0.081000
      3 C15          1.6160    -2.8490    -0.1680 ca         1 5UV       0.111000
      4 C17         -1.3680     0.0720    -1.0620 ca         1 5UV      -0.138000
      5 C21          1.0860     3.2290     0.9190 c6         1 5UV      -0.023100
      6 C22          3.8580     3.1200    -0.1490 c6         1 5UV      -0.134700
      7 C24          3.0140     4.3840    -0.1990 c6         1 5UV      -0.074400
      8 C01          0.9880     0.7500     0.5500 ca         1 5UV       0.326000
      9 C02          1.5930    -0.4690     0.1380 ca         1 5UV      -0.090000
     10 C03          1.7130     1.9230     0.4980 ca         1 5UV      -0.165300
     11 N04          3.5820     0.7670    -0.4800 nb         1 5UV      -0.681000
     12 C05          3.0290     1.8690    -0.0380 ca         1 5UV       0.399300
     13 C06          2.9000    -0.3930    -0.3940 ca         1 5UV       0.285000
     14 N07         -0.3140     0.7380     1.0430 nu         1 5UV      -0.989000
     15 C08         -3.7990    -0.0690     0.2530 ca         1 5UV       0.104000
     16 C09         -2.6620     0.2890     0.9540 ca         1 5UV      -0.141000
     17 C11          0.9660    -1.7280     0.2660 ca         1 5UV      -0.072000
     18 C12         -3.7210    -0.3730    -1.0960 ca         1 5UV       0.143000
     19 C14         -2.5100    -0.3050    -1.7520 ca         1 5UV      -0.108000
     20 CL16        -5.3240    -0.1560     1.0510 cl         1 5UV      -0.169000
     21 F18         -4.8280    -0.7260    -1.7590 f          1 5UV      -0.161000
     22 C19          2.9020    -2.7880    -0.7380 ca         1 5UV      -0.091000
     23 C23          2.0620     4.3980     0.9850 c6         1 5UV      -0.073400
     24 H1           4.5230    -1.5080    -1.2600 ha         1 5UV       0.136000
     25 H2          -0.4360     0.1440    -1.6050 ha         1 5UV       0.134000
     26 H3           0.2820     3.4640     0.2130 hc         1 5UV       0.046200
     27 H4           0.6020     3.1290     1.8950 hc         1 5UV       0.046200
     28 H5           4.5050     3.0310    -1.0230 hc         1 5UV       0.066200
     29 H6           4.5210     3.1680     0.7220 hc         1 5UV       0.066200
     30 H7           3.6630     5.2620    -0.1830 hc         1 5UV       0.048700
     31 H8           2.4500     4.4240    -1.1350 hc         1 5UV       0.048700
     32 H9          -0.5040     1.3920     1.7870 hn         1 5UV       0.489000
     33 H10         -2.7330     0.5090     2.0110 ha         1 5UV       0.133000
     34 H11         -0.0120    -1.8100     0.7190 ha         1 5UV       0.142000
     35 H12         -2.4570    -0.5300    -2.8090 ha         1 5UV       0.137000
     36 H13          3.3890    -3.6920    -1.0760 ha         1 5UV       0.133000
     37 H14          1.4970     5.3300     1.0240 hc         1 5UV       0.045700
     38 H15          2.6420     4.3450     1.9110 hc         1 5UV       0.045700
     39 CL20         0.8560    -4.3980    -0.0080 cl         1 5UV      -0.197000
@<TRIPOS>BOND
     1     1     4 ar  
     2     1    14 1   
     3     1    16 ar  
     4     2    13 ar  
     5     2    22 ar  
     6     2    24 1   
     7     3    17 ar  
     8     3    22 ar  
     9     3    39 1   
    10     4    19 ar  
    11     4    25 1   
    12     5    10 1   
    13     5    23 1   
    14     5    26 1   
    15     5    27 1   
    16     6     7 1   
    17     6    12 1   
    18     6    28 1   
    19     6    29 1   
    20     7    23 1   
    21     7    30 1   
    22     7    31 1   
    23     8     9 ar  
    24     8    10 ar  
    25     8    14 1   
    26     9    13 ar  
    27     9    17 ar  
    28    10    12 ar  
    29    11    12 ar  
    30    11    13 ar  
    31    14    32 1   
    32    15    16 ar  
    33    15    18 ar  
    34    15    20 1   
    35    16    33 1   
    36    17    34 1   
    37    18    19 ar  
    38    18    21 1   
    39    19    35 1   
    40    22    36 1   
    41    23    37 1   
    42    23    38 1   
@<TRIPOS>SUBSTRUCTURE
     1 5UV         1 TEMP              0 ****  ****    0 ROOT
