@<TRIPOS>MOLECULE
5UV
   39    42     1     0     0
SMALL
No Charge or Current Charge


@<TRIPOS>ATOM
      1 C10         -1.5110     0.3440     0.2370 ca         1 5UV       0.301000
      2 C13          3.6620    -1.5800    -0.7630 ca         1 5UV      -0.081000
      3 C15          1.6960    -2.9030    -0.2470 ca         1 5UV       0.111000
      4 C17         -1.5040    -0.0790    -1.1060 ca         1 5UV      -0.138000
      5 C21          1.0700     3.2660     0.8560 c6         1 5UV      -0.023100
      6 C22          3.9200     3.1580    -0.1230 c6         1 5UV      -0.134700
      7 C24          3.0970     4.4650    -0.1000 c6         1 5UV      -0.074400
      8 C01          1.0090     0.7190     0.4700 ca         1 5UV       0.326000
      9 C02          1.6630    -0.4770     0.0820 ca         1 5UV      -0.090000
     10 C03          1.7280     1.9300     0.4470 ca         1 5UV      -0.165300
     11 N04          3.6750     0.7670    -0.4200 nb         1 5UV      -0.681000
     12 C05          3.0560     1.8980    -0.0250 ca         1 5UV       0.399300
     13 C06          3.0050    -0.4010    -0.3660 ca         1 5UV       0.285000
     14 N07         -0.3340     0.7320     0.8780 nu         1 5UV      -0.989000
     15 C08         -3.9240     0.0160     0.3150 ca         1 5UV       0.104000
     16 C09         -2.7250     0.3970     0.9410 ca         1 5UV      -0.141000
     17 C11          1.0230    -1.7400     0.1530 ca         1 5UV      -0.072000
     18 C12         -3.9120    -0.4160    -1.0260 ca         1 5UV       0.143000
     19 C14         -2.7020    -0.4630    -1.7380 ca         1 5UV      -0.108000
     20 Cl16        -5.4330     0.0850     1.2240 cl         1 5UV      -0.169000
     21 F18         -5.0600    -0.7850    -1.6390 f          1 5UV      -0.161000
     22 C19          3.0150    -2.8260    -0.7110 ca         1 5UV      -0.091000
     23 C23          2.0730     4.4260     1.0490 c6         1 5UV      -0.073400
     24 H1           4.6900    -1.5260    -1.1130 ha         1 5UV       0.136000
     25 H2          -0.5740    -0.1070    -1.6650 ha         1 5UV       0.134000
     26 H3           0.3410     3.5480     0.0830 hc         1 5UV       0.046200
     27 H4           0.4990     3.1450     1.7860 hc         1 5UV       0.046200
     28 H5           4.5280     3.1280    -1.0370 hc         1 5UV       0.066200
     29 H6           4.6280     3.1600     0.7160 hc         1 5UV       0.066200
     30 H7           3.7670     5.3290     0.0150 hc         1 5UV       0.048700
     31 H8           2.5750     4.5960    -1.0590 hc         1 5UV       0.048700
     32 H9          -0.4980     1.3290     1.6890 hn         1 5UV       0.489000
     33 H10         -2.7410     0.7270     1.9750 ha         1 5UV       0.133000
     34 H11          0.0080    -1.8350     0.5250 ha         1 5UV       0.142000
     35 H12         -2.6950    -0.7910    -2.7740 ha         1 5UV       0.137000
     36 H13          3.5380    -3.7280    -1.0200 ha         1 5UV       0.133000
     37 H14          1.5320     5.3800     1.1090 hc         1 5UV       0.045700
     38 H15          2.5990     4.3050     2.0070 hc         1 5UV       0.045700
     39 Cl20         0.8840    -4.4610    -0.1610 cl         1 5UV      -0.197000
@<TRIPOS>BOND
     1     1     4 ar  
     2     1    14 1   
     3     1    16 ar  
     4     2    13 ar  
     5     2    22 ar  
     6     2    24 1   
     7     3    17 ar  
     8     3    22 ar  
     9     3    39 1   
    10     4    19 ar  
    11     4    25 1   
    12     5    10 1   
    13     5    23 1   
    14     5    26 1   
    15     5    27 1   
    16     6     7 1   
    17     6    12 1   
    18     6    28 1   
    19     6    29 1   
    20     7    23 1   
    21     7    30 1   
    22     7    31 1   
    23     8     9 ar  
    24     8    10 ar  
    25     8    14 1   
    26     9    13 ar  
    27     9    17 ar  
    28    10    12 ar  
    29    11    12 ar  
    30    11    13 ar  
    31    14    32 1   
    32    15    16 ar  
    33    15    18 ar  
    34    15    20 1   
    35    16    33 1   
    36    17    34 1   
    37    18    19 ar  
    38    18    21 1   
    39    19    35 1   
    40    22    36 1   
    41    23    37 1   
    42    23    38 1   
@<TRIPOS>SUBSTRUCTURE
     1 5UV         1 TEMP              0 ****  ****    0 ROOT
