@<TRIPOS>MOLECULE
5UW
   48    50     1     0     0
SMALL
No Charge or Current Charge


@<TRIPOS>ATOM
      1 C10          2.0980    -3.2050     0.9160 ca         1 5UW      -0.109500
      2 C13          1.5780    -1.9650    -1.5500 ca         1 5UW      -0.104000
      3 C15         -1.0690     0.2660    -0.1870 c3         1 5UW       0.161800
      4 C17         -3.5510     0.2780     0.3040 c6         1 5UW       0.173500
      5 C21         -5.9750     0.2280     1.0870 c6         1 5UW       0.162300
      6 C22         -4.5470     0.7330     1.3970 c6         1 5UW      -0.091900
      7 C01          1.4990     0.3400    -0.4620 c3         1 5UW       0.030900
      8 C02          2.8110     1.0500    -0.0980 ca         1 5UW      -0.072800
      9 C03          3.7900     1.2240    -1.0980 ca         1 5UW      -0.104000
     10 C04          5.0090     1.8610    -0.8070 ca         1 5UW      -0.109500
     11 C05          5.2660     2.3270     0.4920 ca         1 5UW      -0.111000
     12 C06          4.3030     2.1530     1.4990 ca         1 5UW      -0.109500
     13 C07          3.0840     1.5170     1.2090 ca         1 5UW      -0.104000
     14 C08          1.6750    -1.1780    -0.3830 ca         1 5UW      -0.072800
     15 C09          1.9390    -1.8100     0.8500 ca         1 5UW      -0.104000
     16 C11          1.9970    -3.9810    -0.2500 ca         1 5UW      -0.111000
     17 C12          1.7370    -3.3610    -1.4830 ca         1 5UW      -0.109500
     18 C14          0.2650     0.8270     0.3480 c3         1 5UW      -0.071400
     19 N16         -2.1990     0.8030     0.5960 n7         1 5UW      -0.864400
     20 C18         -4.0620     0.7260    -1.0910 c6         1 5UW      -0.091900
     21 C19         -5.5050     0.2250    -1.3350 c6         1 5UW       0.162300
     22 N20         -6.4190     0.6680    -0.2560 n7         1 5UW      -0.862400
     23 H1           2.3010    -3.6840     1.8720 ha         1 5UW       0.111500
     24 H2           1.3780    -1.4980    -2.5110 ha         1 5UW       0.111500
     25 H3          -1.1700     0.5370    -1.2460 h1         1 5UW       0.031700
     26 H4          -1.0500    -0.8310    -0.1210 h1         1 5UW       0.031700
     27 H5          -3.5120    -0.8230     0.3220 h1         1 5UW       0.053700
     28 H6          -5.9940    -0.8720     1.1370 h1         1 5UW       0.028700
     29 H7          -6.6740     0.6070     1.8470 h1         1 5UW       0.028700
     30 H8          -4.2290     0.3540     2.3780 hc         1 5UW       0.049200
     31 H9          -4.5550     1.8290     1.4700 hc         1 5UW       0.049200
     32 H10          1.2790     0.6060    -1.5040 hc         1 5UW       0.053700
     33 H11          3.6060     0.8630    -2.1080 ha         1 5UW       0.111500
     34 H12          5.7540     1.9900    -1.5890 ha         1 5UW       0.111500
     35 H13          6.2090     2.8190     0.7180 ha         1 5UW       0.111500
     36 H14          4.5030     2.5090     2.5070 ha         1 5UW       0.111500
     37 H15          2.3620     1.3880     2.0100 ha         1 5UW       0.111500
     38 H16          2.0240    -1.2210     1.7600 ha         1 5UW       0.111500
     39 H17          2.1200    -5.0610    -0.1990 ha         1 5UW       0.111500
     40 H18          1.6600    -3.9600    -2.3870 ha         1 5UW       0.111500
     41 H19          0.2300     1.9220     0.3130 hc         1 5UW       0.050700
     42 H20          0.3650     0.5400     1.4010 hc         1 5UW       0.050700
     43 H21         -2.2130     1.8240     0.4950 hn         1 5UW       0.406000
     44 H23         -4.0360     1.8210    -1.1700 hc         1 5UW       0.049200
     45 H24         -3.4100     0.3360    -1.8830 hc         1 5UW       0.049200
     46 H25         -5.8680     0.6030    -2.3020 h1         1 5UW       0.028700
     47 H26         -5.5070    -0.8740    -1.3860 h1         1 5UW       0.028700
     48 H27         -7.3560     0.2870    -0.4380 hn         1 5UW       0.410000
@<TRIPOS>BOND
     1     1    15 ar  
     2     1    16 ar  
     3     1    23 1   
     4     2    14 ar  
     5     2    17 ar  
     6     2    24 1   
     7     3    18 1   
     8     3    19 1   
     9     3    25 1   
    10     3    26 1   
    11     4     6 1   
    12     4    19 1   
    13     4    20 1   
    14     4    27 1   
    15     5     6 1   
    16     5    22 1   
    17     5    28 1   
    18     5    29 1   
    19     6    30 1   
    20     6    31 1   
    21     7     8 1   
    22     7    14 1   
    23     7    18 1   
    24     7    32 1   
    25     8     9 ar  
    26     8    13 ar  
    27     9    10 ar  
    28     9    33 1   
    29    10    11 ar  
    30    10    34 1   
    31    11    12 ar  
    32    11    35 1   
    33    12    13 ar  
    34    12    36 1   
    35    13    37 1   
    36    14    15 ar  
    37    15    38 1   
    38    16    17 ar  
    39    16    39 1   
    40    17    40 1   
    41    18    41 1   
    42    18    42 1   
    43    19    43 1   
    44    20    21 1   
    45    20    44 1   
    46    20    45 1   
    47    21    22 1   
    48    21    46 1   
    49    21    47 1   
    50    22    48 1   
@<TRIPOS>SUBSTRUCTURE
     1 5UW         1 TEMP              0 ****  ****    0 ROOT
