@<TRIPOS>MOLECULE
5UW
   48    50     1     0     0
SMALL
abcg2


@<TRIPOS>ATOM
      1 C10          2.1860    -3.1630     0.8590 ca         1 5UW      -0.109500
      2 C13          1.3970    -1.9330    -1.4920 ca         1 5UW      -0.104000
      3 C15         -1.0700     0.2510    -0.0660 c3         1 5UW       0.161800
      4 C17         -3.4860     0.2730     0.3300 c6         1 5UW       0.173500
      5 C21         -5.9160     0.2170     0.9700 c6         1 5UW       0.162300
      6 C22         -4.5280     0.7070     1.3560 c6         1 5UW      -0.091900
      7 C01          1.4370     0.3510    -0.4150 c3         1 5UW       0.030900
      8 C02          2.7350     1.0590    -0.0880 ca         1 5UW      -0.072800
      9 C03          3.6970     1.1980    -1.0890 ca         1 5UW      -0.104000
     10 C04          4.9130     1.8130    -0.8330 ca         1 5UW      -0.109500
     11 C05          5.1930     2.3020     0.4370 ca         1 5UW      -0.111000
     12 C06          4.2450     2.1700     1.4410 ca         1 5UW      -0.109500
     13 C07          3.0260     1.5550     1.1800 ca         1 5UW      -0.104000
     14 C08          1.6280    -1.1520    -0.3640 ca         1 5UW      -0.072800
     15 C09          2.0260    -1.7860     0.8130 ca         1 5UW      -0.104000
     16 C11          1.9530    -3.9330    -0.2750 ca         1 5UW      -0.111000
     17 C12          1.5580    -3.3130    -1.4510 ca         1 5UW      -0.109500
     18 C14          0.2530     0.7960     0.4490 c3         1 5UW      -0.071400
     19 N16         -2.1750     0.7630     0.7220 n7         1 5UW      -0.864400
     20 C18         -3.9410     0.7000    -1.0700 c6         1 5UW      -0.091900
     21 C19         -5.3540     0.2150    -1.3640 c6         1 5UW       0.162300
     22 N20         -6.2700     0.7060    -0.3500 n7         1 5UW      -0.862400
     23 H1           2.4960    -3.6360     1.7810 ha         1 5UW       0.111500
     24 H2           1.0820    -1.4580    -2.4130 ha         1 5UW       0.111500
     25 H3          -1.1510     0.4800    -1.1400 h1         1 5UW       0.031700
     26 H4          -1.0790    -0.8410     0.0110 h1         1 5UW       0.031700
     27 H5          -3.4330    -0.8250     0.3480 h1         1 5UW       0.053700
     28 H6          -5.9280    -0.8850     1.0270 h1         1 5UW       0.028700
     29 H7          -6.6530     0.5770     1.6900 h1         1 5UW       0.028700
     30 H8          -4.2580     0.3240     2.3430 hc         1 5UW       0.049200
     31 H9          -4.5370     1.8000     1.4230 hc         1 5UW       0.049200
     32 H10          1.1880     0.6060    -1.4510 hc         1 5UW       0.053700
     33 H11          3.4870     0.8210    -2.0830 ha         1 5UW       0.111500
     34 H12          5.6410     1.9150    -1.6280 ha         1 5UW       0.111500
     35 H13          6.1400     2.7860     0.6400 ha         1 5UW       0.111500
     36 H14          4.4510     2.5500     2.4340 ha         1 5UW       0.111500
     37 H15          2.3010     1.4710     1.9790 ha         1 5UW       0.111500
     38 H16          2.2190    -1.2010     1.7060 ha         1 5UW       0.111500
     39 H17          2.0790    -5.0080    -0.2400 ha         1 5UW       0.111500
     40 H18          1.3720    -3.9020    -2.3400 ha         1 5UW       0.111500
     41 H19          0.2120     1.8900     0.4480 hc         1 5UW       0.050700
     42 H20          0.3890     0.4870     1.4880 hc         1 5UW       0.050700
     43 H21         -2.1760     1.7770     0.6710 hn         1 5UW       0.406000
     44 H23         -3.9120     1.7940    -1.1330 hc         1 5UW       0.049200
     45 H24         -3.2600     0.3140    -1.8330 hc         1 5UW       0.049200
     46 H25         -5.6780     0.5800    -2.3410 h1         1 5UW       0.028700
     47 H26         -5.3450    -0.8870    -1.4250 h1         1 5UW       0.028700
     48 H27         -7.2110     0.4120    -0.5760 hn         1 5UW       0.410000
@<TRIPOS>BOND
     1     1    15 ar  
     2     1    16 ar  
     3     1    23 1   
     4     2    14 ar  
     5     2    17 ar  
     6     2    24 1   
     7     3    18 1   
     8     3    19 1   
     9     3    25 1   
    10     3    26 1   
    11     4     6 1   
    12     4    19 1   
    13     4    20 1   
    14     4    27 1   
    15     5     6 1   
    16     5    22 1   
    17     5    28 1   
    18     5    29 1   
    19     6    30 1   
    20     6    31 1   
    21     7     8 1   
    22     7    14 1   
    23     7    18 1   
    24     7    32 1   
    25     8     9 ar  
    26     8    13 ar  
    27     9    10 ar  
    28     9    33 1   
    29    10    11 ar  
    30    10    34 1   
    31    11    12 ar  
    32    11    35 1   
    33    12    13 ar  
    34    12    36 1   
    35    13    37 1   
    36    14    15 ar  
    37    15    38 1   
    38    16    17 ar  
    39    16    39 1   
    40    17    40 1   
    41    18    41 1   
    42    18    42 1   
    43    19    43 1   
    44    20    21 1   
    45    20    44 1   
    46    20    45 1   
    47    21    22 1   
    48    21    46 1   
    49    21    47 1   
    50    22    48 1   
@<TRIPOS>SUBSTRUCTURE
     1 5UW         1 TEMP              0 ****  ****    0 ROOT
