@<TRIPOS>MOLECULE
5UX
   39    42     1     0     0
SMALL
No Charge or Current Charge


@<TRIPOS>ATOM
      1 C10          0.4670     1.8500     0.3060 ca         1 5UX      -0.138300
      2 C13          0.2890     4.4530    -1.0450 c6         1 5UX      -0.075400
      3 C15         -0.7630     2.7600     0.5210 c6         1 5UX      -0.026100
      4 C17          2.7760     0.3510    -0.0860 ca         1 5UX       0.295000
      5 C21          2.9980    -2.2830     0.9150 ca         1 5UX      -0.104000
      6 C22          1.8180    -1.5510     1.1230 ca         1 5UX      -0.086000
      7 C24         -2.2920    -0.1820    -0.1830 ca         1 5UX      -0.141000
      8 C02         -3.6260    -0.4500    -0.5340 ca         1 5UX       0.104000
      9 C03         -4.5570    -0.8050     0.4610 ca         1 5UX       0.140000
     10 F04         -5.8440    -1.0650     0.1350 f          1 5UX      -0.162000
     11 C05         -4.1510    -0.8960     1.8020 ca         1 5UX      -0.106000
     12 C06         -2.8130    -0.6260     2.1480 ca         1 5UX      -0.146000
     13 C07         -1.8850    -0.2590     1.1600 ca         1 5UX       0.311000
     14 C09          0.5220     0.5350     0.8170 ca         1 5UX       0.326000
     15 C11          1.5920     2.3270    -0.3990 ca         1 5UX       0.398300
     16 C12          1.6590     3.7420    -0.9790 c6         1 5UX      -0.134700
     17 C14         -0.4750     4.2580     0.2780 c6         1 5UX      -0.074400
     18 N16          2.7110     1.6000    -0.5860 nb         1 5UX      -0.684000
     19 C18          3.9490    -0.3990    -0.2840 ca         1 5UX      -0.077000
     20 C19          4.0620    -1.7040     0.2130 ca         1 5UX       0.127000
     21 Cl20         5.5410    -2.6190    -0.0500 cl         1 5UX      -0.195000
     22 C23          1.6990    -0.2270     0.6300 ca         1 5UX      -0.112000
     23 H1           0.4290     5.5230    -1.2510 hc         1 5UX       0.047700
     24 H2          -0.3040     4.0470    -1.8780 hc         1 5UX       0.047700
     25 H3          -1.5650     2.4480    -0.1600 hc         1 5UX       0.057200
     26 H4          -1.1580     2.6370     1.5380 hc         1 5UX       0.057200
     27 H5           3.0860    -3.2970     1.2950 ha         1 5UX       0.132000
     28 H6           1.0040    -2.0280     1.6630 ha         1 5UX       0.114000
     29 H7          -1.5770     0.0780    -0.9560 ha         1 5UX       0.143000
     30 H8          -4.8710    -1.1740     2.5690 ha         1 5UX       0.136000
     31 H9          -2.5030    -0.6950     3.1870 ha         1 5UX       0.123000
     32 H10         -0.3010    -0.4190     2.4190 hn         1 5UX       0.495000
     33 H11          2.1020     3.7150    -1.9840 hc         1 5UX       0.065700
     34 H12          2.3430     4.3380    -0.3600 hc         1 5UX       0.065700
     35 H13          0.1150     4.6650     1.1120 hc         1 5UX       0.046200
     36 H14         -1.4180     4.8210     0.2580 hc         1 5UX       0.046200
     37 H15          4.7780     0.0400    -0.8300 ha         1 5UX       0.148000
     38 N08         -0.5640    -0.0050     1.5240 nu         1 5UX      -0.998000
     39 Cl01        -4.1110    -0.3380    -2.2250 cl         1 5UX      -0.167000
@<TRIPOS>BOND
     1     1     3 1   
     2     1    14 ar  
     3     1    15 ar  
     4     2    16 1   
     5     2    17 1   
     6     2    23 1   
     7     2    24 1   
     8     3    17 1   
     9     3    25 1   
    10     3    26 1   
    11     4    18 ar  
    12     4    19 ar  
    13     4    22 ar  
    14     5     6 ar  
    15     5    20 ar  
    16     5    27 1   
    17     6    22 ar  
    18     6    28 1   
    19     7     8 ar  
    20     7    13 ar  
    21     7    29 1   
    22     8     9 ar  
    23     8    39 1   
    24     9    10 1   
    25     9    11 ar  
    26    11    12 ar  
    27    11    30 1   
    28    12    13 ar  
    29    12    31 1   
    30    13    38 1   
    31    14    22 ar  
    32    14    38 1   
    33    15    16 1   
    34    15    18 ar  
    35    16    33 1   
    36    16    34 1   
    37    17    35 1   
    38    17    36 1   
    39    19    20 ar  
    40    19    37 1   
    41    20    21 1   
    42    32    38 1   
@<TRIPOS>SUBSTRUCTURE
     1 5UX         1 TEMP              0 ****  ****    0 ROOT
