@<TRIPOS>MOLECULE
5UX
   39    42     1     0     0
SMALL
bcc


@<TRIPOS>ATOM
      1 C10          0.4250     1.7900     0.3180 ca         1 5UX      -0.203600
      2 C13          0.1640     4.3250    -1.0240 c6         1 5UX      -0.075400
      3 C15         -0.7690     2.6690     0.5780 c6         1 5UX      -0.026100
      4 C17          2.7380     0.3480    -0.0840 ca         1 5UX       0.425600
      5 C21          3.0260    -2.2510     0.9230 ca         1 5UX      -0.122000
      6 C22          1.8590    -1.5680     1.1320 ca         1 5UX      -0.104000
      7 C24         -2.1710    -0.1230    -0.1650 ca         1 5UX      -0.159000
      8 C02         -3.4890    -0.3110    -0.5520 ca         1 5UX       0.012400
      9 C03         -4.4570    -0.6150     0.3870 ca         1 5UX       0.104900
     10 F04         -5.7240    -0.7960    -0.0060 f          1 5UX      -0.126900
     11 C05         -4.1210    -0.7330     1.7210 ca         1 5UX      -0.124000
     12 C06         -2.8130    -0.5220     2.1190 ca         1 5UX      -0.164000
     13 C07         -1.8240    -0.2110     1.1830 ca         1 5UX       0.172600
     14 C09          0.5090     0.5160     0.8510 ca         1 5UX       0.187600
     15 C11          1.5320     2.2670    -0.4350 ca         1 5UX       0.463600
     16 C12          1.5260     3.6520    -1.0290 c6         1 5UX      -0.134700
     17 C14         -0.4900     4.1450     0.3350 c6         1 5UX      -0.074400
     18 N16          2.6340     1.5800    -0.6200 nb         1 5UX      -0.684000
     19 C18          3.9410    -0.3670    -0.2910 ca         1 5UX      -0.160300
     20 C19          4.0690    -1.6290     0.2120 ca         1 5UX       0.035400
     21 CL20         5.5400    -2.5100    -0.0350 cl         1 5UX      -0.103400
     22 C23          1.6910    -0.2500     0.6530 ca         1 5UX      -0.177300
     23 H1           0.2770     5.3820    -1.2720 hc         1 5UX       0.047700
     24 H2          -0.4760     3.8870    -1.7970 hc         1 5UX       0.047700
     25 H3          -1.5990     2.3650    -0.0700 hc         1 5UX       0.057200
     26 H4          -1.1180     2.5030     1.6000 hc         1 5UX       0.057200
     27 H5           3.1440    -3.2600     1.2910 ha         1 5UX       0.150000
     28 H6           1.0590    -2.0670     1.6620 ha         1 5UX       0.132000
     29 H7          -1.4210     0.0740    -0.9210 ha         1 5UX       0.161000
     30 H8          -4.8840    -0.9740     2.4490 ha         1 5UX       0.154000
     31 H9          -2.5580    -0.5980     3.1680 ha         1 5UX       0.141000
     32 H10         -0.2500    -0.5520     2.4260 hn         1 5UX       0.439800
     33 H11          1.9400     3.5950    -2.0380 hc         1 5UX       0.065700
     34 H12          2.2310     4.2590    -0.4510 hc         1 5UX       0.065700
     35 H13          0.1640     4.5430     1.1170 hc         1 5UX       0.046200
     36 H14         -1.4270     4.7020     0.3960 hc         1 5UX       0.046200
     37 H15          4.7360     0.1080    -0.8500 ha         1 5UX       0.166000
     38 N08         -0.5200    -0.0180     1.6160 nu         1 5UX      -0.666000
     39 CL01        -3.9310    -0.1880    -2.2130 cl         1 5UX      -0.075400
@<TRIPOS>BOND
     1     1     3 1   
     2     1    14 ar  
     3     1    15 ar  
     4     2    16 1   
     5     2    17 1   
     6     2    23 1   
     7     2    24 1   
     8     3    17 1   
     9     3    25 1   
    10     3    26 1   
    11     4    18 ar  
    12     4    19 ar  
    13     4    22 ar  
    14     5     6 ar  
    15     5    20 ar  
    16     5    27 1   
    17     6    22 ar  
    18     6    28 1   
    19     7     8 ar  
    20     7    13 ar  
    21     7    29 1   
    22     8     9 ar  
    23     8    39 1   
    24     9    10 1   
    25     9    11 ar  
    26    11    12 ar  
    27    11    30 1   
    28    12    13 ar  
    29    12    31 1   
    30    13    38 1   
    31    14    22 ar  
    32    14    38 1   
    33    15    16 1   
    34    15    18 ar  
    35    16    33 1   
    36    16    34 1   
    37    17    35 1   
    38    17    36 1   
    39    19    20 ar  
    40    19    37 1   
    41    20    21 1   
    42    32    38 1   
@<TRIPOS>SUBSTRUCTURE
     1 5UX         1 TEMP              0 ****  ****    0 ROOT
