@<TRIPOS>MOLECULE
5UY
   46    48     1     0     0
SMALL
bcc


@<TRIPOS>ATOM
      1 C1          -0.7110     2.0780     0.2440 ca         1 5UY       0.532200
      2 O1           2.8420     2.7070     0.0590 o          1 5UY      -0.580000
      3 C2          -1.3080    -0.0930     0.3260 ca         1 5UY       0.731200
      4 O2           1.0970     4.0870     0.1190 os         1 5UY      -0.413900
      5 C3           0.0090    -0.5200     0.2850 ca         1 5UY      -0.423300
      6 C4           1.0450     0.4250     0.2340 ca         1 5UY       0.315600
      7 C5           2.7740    -1.3220     0.1470 c3         1 5UY       0.236800
      8 C6           4.2760    -1.3940     0.3340 c6         1 5UY       0.087100
      9 C7           6.2850    -0.5590    -0.5480 c6         1 5UY       0.096400
     10 C8           6.8440    -1.9660    -0.6860 c6         1 5UY       0.109800
     11 N1           2.3280     0.0480     0.2150 nu         1 5UY      -0.751600
     12 C9           4.7970    -2.8240     0.2220 c6         1 5UY       0.120800
     13 C13         -4.4320    -2.0880     0.5720 ca         1 5UY       0.231900
     14 C10         -3.6190    -0.9970     0.1650 ca         1 5UY       0.590900
     15 C11         -5.4490     0.0060    -0.7060 ca         1 5UY       0.381900
     16 C12         -6.2390    -1.0550    -0.2970 ca         1 5UY       0.311000
     17 C14         -7.6450    -1.0630    -0.5450 cg         1 5UY       0.144800
     18 C16          1.9770     5.2080     0.0390 c3         1 5UY       0.133700
     19 N2           6.2480    -2.8970     0.2620 n7         1 5UY      -0.784200
     20 C            0.6510     1.7980     0.2010 ca         1 5UY      -0.393900
     21 O            4.8740    -0.5710    -0.6500 os         1 5UY      -0.403600
     22 N           -1.6800     1.1840     0.3130 nb         1 5UY      -0.725000
     23 N3          -2.2890    -1.0680     0.4290 nu         1 5UY      -0.848600
     24 N5          -5.7140    -2.1090     0.3410 nb         1 5UY      -0.573000
     25 N4          -4.1450     0.0320    -0.4800 nb         1 5UY      -0.659000
     26 N6          -8.7790    -1.0560    -0.7490 n1         1 5UY      -0.347800
     27 H1          -1.0410     3.1100     0.2300 h4         1 5UY       0.037100
     28 H2           0.2240    -1.5800     0.2820 ha         1 5UY       0.139000
     29 H3           2.4930    -1.7810    -0.8090 h1         1 5UY       0.050200
     30 H4           2.3080    -1.9140     0.9380 h1         1 5UY       0.050200
     31 H5           4.5290    -1.0080     1.3360 h1         1 5UY       0.043700
     32 H6           6.5920    -0.1340     0.4190 h1         1 5UY       0.053700
     33 H7           6.6590     0.0960    -1.3360 h1         1 5UY       0.053700
     34 H8           6.6560    -2.3340    -1.7000 h1         1 5UY       0.065700
     35 H9           7.9260    -1.9510    -0.5450 h1         1 5UY       0.065700
     36 H10          3.0110     0.7780     0.0700 hn         1 5UY       0.489800
     37 H11          4.3840    -3.4340     1.0280 h1         1 5UY       0.063700
     38 H12          4.4530    -3.2590    -0.7240 h1         1 5UY       0.063700
     39 H13         -3.9970    -2.9370     1.0880 h4         1 5UY       0.031100
     40 H14         -5.8780     0.8490    -1.2360 h4         1 5UY       0.043100
     41 H15          2.6510     5.2480     0.8940 h1         1 5UY       0.049700
     42 H16          2.5610     5.1910    -0.8810 h1         1 5UY       0.049700
     43 H17          1.3380     6.0860     0.0430 h1         1 5UY       0.049700
     44 H18          6.5670    -2.6660     1.1970 hn         1 5UY       0.350800
     45 H20         -1.9620    -1.9730     0.7330 hn         1 5UY       0.449800
     46 C15          1.6390     2.8790     0.1210 c          1 5UY       0.680700
@<TRIPOS>BOND
     1     1    20 ar  
     2     1    22 ar  
     3     1    27 1   
     4     2    46 2   
     5     3     5 ar  
     6     3    22 ar  
     7     3    23 1   
     8     4    18 1   
     9     4    46 1   
    10     5     6 ar  
    11     5    28 1   
    12     6    11 1   
    13     6    20 ar  
    14     7     8 1   
    15     7    11 1   
    16     7    29 1   
    17     7    30 1   
    18     8    12 1   
    19     8    21 1   
    20     8    31 1   
    21     9    10 1   
    22     9    21 1   
    23     9    32 1   
    24     9    33 1   
    25    10    19 1   
    26    10    34 1   
    27    10    35 1   
    28    11    36 1   
    29    12    19 1   
    30    12    37 1   
    31    12    38 1   
    32    13    14 ar  
    33    13    24 ar  
    34    13    39 1   
    35    14    23 1   
    36    14    25 ar  
    37    15    16 ar  
    38    15    25 ar  
    39    15    40 1   
    40    16    17 1   
    41    16    24 ar  
    42    17    26 3   
    43    18    41 1   
    44    18    42 1   
    45    18    43 1   
    46    19    44 1   
    47    20    46 1   
    48    23    45 1   
@<TRIPOS>SUBSTRUCTURE
     1 5UY         1 TEMP              0 ****  ****    0 ROOT
