@<TRIPOS>MOLECULE
5UY
   46    48     1     0     0
SMALL
No Charge or Current Charge


@<TRIPOS>ATOM
      1 C1          -0.6970     2.0340     0.3200 ca         1 5UY       0.466900
      2 O1           2.8940     2.5230     0.4490 o          1 5UY      -0.531000
      3 C2          -1.3980    -0.1250     0.6150 ca         1 5UY       0.665900
      4 O2           1.2050     3.9440    -0.1240 os         1 5UY      -0.437100
      5 C3          -0.0990    -0.5900     0.7190 ca         1 5UY      -0.340000
      6 C4           0.9460     0.3180     0.5900 ca         1 5UY       0.454000
      7 C5           2.7630    -1.4210     0.1610 c3         1 5UY       0.236800
      8 C6           4.3120    -1.5230     0.3110 c6         1 5UY       0.110300
      9 C7           6.3550    -0.3170    -0.1750 c6         1 5UY       0.119600
     10 C8           6.9690    -1.5780    -0.8540 c6         1 5UY       0.109800
     11 N1           2.2500    -0.1380     0.6770 nu         1 5UY      -0.945200
     12 C9           4.8850    -2.8120    -0.3590 c6         1 5UY       0.120800
     13 C13         -4.8050    -1.6570     1.1280 ca         1 5UY       0.231900
     14 C10         -3.7780    -0.9780     0.3940 ca         1 5UY       0.590900
     15 C11         -5.3380    -0.3730    -1.1810 ca         1 5UY       0.381900
     16 C12         -6.3630    -1.0290    -0.4470 ca         1 5UY       0.311000
     17 C14         -7.7180    -1.0190    -0.9360 cg         1 5UY       0.234000
     18 C16          2.1290     5.0370    -0.2860 c3         1 5UY       0.156900
     19 N2           6.3790    -2.8420    -0.3180 n7         1 5UY      -0.839400
     20 C            0.6530     1.6690     0.3860 ca         1 5UY      -0.328600
     21 O            4.9120    -0.3400    -0.2860 os         1 5UY      -0.450000
     22 N           -1.7080     1.1540     0.4410 nb         1 5UY      -0.725000
     23 N3          -2.4460    -0.9870     0.7840 nu         1 5UY      -0.903800
     24 N5          -6.1070    -1.6880     0.7230 nb         1 5UY      -0.573000
     25 N4          -4.0370    -0.3490    -0.7730 nb         1 5UY      -0.659000
     26 N6          -8.8150    -1.0040    -1.3430 n1         1 5UY      -0.437000
     27 H1          -1.0060     3.0690     0.1760 h4         1 5UY       0.037100
     28 H2           0.0910    -1.6420     0.8940 ha         1 5UY       0.121000
     29 H3           2.5080    -1.5220    -0.9040 h1         1 5UY       0.050200
     30 H4           2.3050    -2.2630     0.6980 h1         1 5UY       0.050200
     31 H5           4.5530    -1.5330     1.3840 h1         1 5UY       0.043700
     32 H6           6.6370    -0.2830     0.8870 h1         1 5UY       0.053700
     33 H7           6.7380     0.5930    -0.6590 h1         1 5UY       0.053700
     34 H8           6.7870    -1.5190    -1.9380 h1         1 5UY       0.065700
     35 H9           8.0600    -1.5810    -0.7070 h1         1 5UY       0.065700
     36 H10          2.9320     0.6280     0.6140 hn         1 5UY       0.545000
     37 H11          4.4800    -3.7030     0.1450 h1         1 5UY       0.063700
     38 H12          4.5490    -2.8490    -1.4070 h1         1 5UY       0.063700
     39 H13         -4.5740    -2.1800     2.0540 h4         1 5UY       0.031100
     40 H14         -5.5620     0.1390    -2.1160 h4         1 5UY       0.043100
     41 H15          2.6600     5.2440     0.6520 h1         1 5UY       0.049700
     42 H16          2.8710     4.8110    -1.0630 h1         1 5UY       0.049700
     43 H17          1.5950     5.9480    -0.5820 h1         1 5UY       0.049700
     44 H18          6.6690    -2.9370     0.6650 hn         1 5UY       0.406000
     45 H20         -2.1930    -1.7960     1.3400 hn         1 5UY       0.505000
     46 C15          1.7040     2.7230     0.2440 c          1 5UY       0.631700
@<TRIPOS>BOND
     1     1    20 ar  
     2     1    22 ar  
     3     1    27 1   
     4     2    46 2   
     5     3     5 ar  
     6     3    22 ar  
     7     3    23 1   
     8     4    18 1   
     9     4    46 1   
    10     5     6 ar  
    11     5    28 1   
    12     6    11 1   
    13     6    20 ar  
    14     7     8 1   
    15     7    11 1   
    16     7    29 1   
    17     7    30 1   
    18     8    12 1   
    19     8    21 1   
    20     8    31 1   
    21     9    10 1   
    22     9    21 1   
    23     9    32 1   
    24     9    33 1   
    25    10    19 1   
    26    10    34 1   
    27    10    35 1   
    28    11    36 1   
    29    12    19 1   
    30    12    37 1   
    31    12    38 1   
    32    13    14 ar  
    33    13    24 ar  
    34    13    39 1   
    35    14    23 1   
    36    14    25 ar  
    37    15    16 ar  
    38    15    25 ar  
    39    15    40 1   
    40    16    17 1   
    41    16    24 ar  
    42    17    26 3   
    43    18    41 1   
    44    18    42 1   
    45    18    43 1   
    46    19    44 1   
    47    20    46 1   
    48    23    45 1   
@<TRIPOS>SUBSTRUCTURE
     1 5UY         1 TEMP              0 ****  ****    0 ROOT
