@<TRIPOS>MOLECULE
5V0
   28    29     1     0     0
SMALL
abcg2


@<TRIPOS>ATOM
      1 N1          -1.3380    -0.4720     0.4270 n7         1 5V0      -0.837400
      2 C4           3.3290    -1.0340    -0.9160 ca         1 5V0      -0.131000
      3 C5           2.3390    -2.0040    -0.9550 ca         1 5V0       0.290900
      4 C7          -2.6070    -0.3890     1.1370 c3         1 5V0       0.126500
      5 C8          -3.7270    -0.0380     0.2260 cc         1 5V0       0.147300
      6 C10         -5.4840     0.1350    -1.1380 cd         1 5V0      -0.193000
      7 O1           5.2180     1.0300    -0.7160 o          1 5V0      -0.714000
      8 O            3.9620     2.1060     0.7820 o          1 5V0      -0.714000
      9 C3           3.1600     0.0660    -0.0850 ca         1 5V0      -0.110600
     10 C2           1.9900     0.1220     0.6630 ca         1 5V0      -0.127000
     11 N            1.2220    -1.9440    -0.2430 nb         1 5V0      -0.683000
     12 C1           1.0470    -0.8930     0.5560 ca         1 5V0       0.289300
     13 C           -0.2460    -0.8280     1.3200 c3         1 5V0       0.115500
     14 O2          -3.7910     1.2360    -0.2250 os         1 5V0      -0.240000
     15 C11         -4.8550     1.3290    -1.0500 cc         1 5V0       0.115900
     16 C9          -4.7440    -0.7590    -0.3050 cd         1 5V0      -0.182000
     17 H1          -1.1320     0.4320     0.0160 hn         1 5V0       0.419000
     18 H3           4.2180    -1.1390    -1.5230 ha         1 5V0       0.133000
     19 H4           2.4570    -2.8740    -1.5930 h4         1 5V0      -0.009900
     20 H5          -2.8260    -1.3690     1.5670 h1         1 5V0       0.040700
     21 H6          -2.5750     0.3200     1.9790 h1         1 5V0       0.040700
     22 H7          -6.3650    -0.0840    -1.7200 ha         1 5V0       0.132000
     23 H9           1.8110     0.9560     1.3300 ha         1 5V0       0.130000
     24 H10         -0.1440    -0.1310     2.1650 h1         1 5V0       0.031200
     25 H11         -0.4630    -1.8110     1.7470 h1         1 5V0       0.031200
     26 H12         -5.0420     2.2930    -1.4960 h4         1 5V0       0.045100
     27 H13         -4.9440    -1.8030    -0.1240 ha         1 5V0       0.138000
     28 C6           4.2120     1.1700     0.0020 c          1 5V0       0.714600
@<TRIPOS>BOND
     1     1     4 1   
     2     1    13 1   
     3     1    17 1   
     4     2     3 ar  
     5     2     9 ar  
     6     2    18 1   
     7     3    11 ar  
     8     3    19 1   
     9     4     5 1   
    10     4    20 1   
    11     4    21 1   
    12     5    14 1   
    13     5    16 2   
    14     6    15 2   
    15     6    16 1   
    16     6    22 1   
    17     7    28 1   
    18     8    28 1   
    19     9    10 ar  
    20     9    28 1   
    21    10    12 ar  
    22    10    23 1   
    23    11    12 ar  
    24    12    13 1   
    25    13    24 1   
    26    13    25 1   
    27    14    15 1   
    28    15    26 1   
    29    16    27 1   
@<TRIPOS>SUBSTRUCTURE
     1 5V0         1 TEMP              0 ****  ****    0 ROOT
