@<TRIPOS>MOLECULE
5V0
   28    29     1     0     0
SMALL
No Charge or Current Charge


@<TRIPOS>ATOM
      1 N1          -1.3590    -0.5600     0.4670 n7         1 5V0      -0.837400
      2 C4           3.5530    -1.1170    -0.7230 ca         1 5V0      -0.131000
      3 C5           2.7730    -2.2720    -0.5480 ca         1 5V0       0.290900
      4 C7          -2.6820    -0.5410     1.1340 c3         1 5V0       0.126500
      5 C8          -3.7560     0.0340     0.2390 cc         1 5V0       0.147300
      6 C10         -5.4480     0.4420    -1.1610 cd         1 5V0      -0.193000
      7 O1           4.9770     1.3370    -0.9710 o          1 5V0      -0.714000
      8 O            3.4550     2.4380     0.0740 o          1 5V0      -0.714000
      9 C3           3.0930     0.1220    -0.2230 ca         1 5V0      -0.110600
     10 C2           1.8420     0.1170     0.4360 ca         1 5V0      -0.127000
     11 N            1.5790    -2.2680     0.0850 nb         1 5V0      -0.683000
     12 C1           1.1190    -1.0860     0.5680 ca         1 5V0       0.289300
     13 C           -0.2420    -1.0960     1.2910 c3         1 5V0       0.115500
     14 O2          -3.8810     1.4030     0.1240 os         1 5V0      -0.240000
     15 C11         -4.9280     1.6360    -0.7420 cc         1 5V0       0.115900
     16 C9          -4.7020    -0.5790    -0.5370 cd         1 5V0      -0.182000
     17 H1          -1.1290     0.4040     0.1900 hn         1 5V0       0.419000
     18 H3           4.5050    -1.1940    -1.2410 ha         1 5V0       0.133000
     19 H4           3.1150    -3.2340    -0.9260 h4         1 5V0      -0.009900
     20 H5          -2.9770    -1.5580     1.4240 h1         1 5V0       0.040700
     21 H6          -2.6380     0.0610     2.0530 h1         1 5V0       0.040700
     22 H7          -6.2790     0.3140    -1.8470 ha         1 5V0       0.132000
     23 H9           1.4290     1.0350     0.8460 ha         1 5V0       0.130000
     24 H10         -0.1410    -0.5030     2.2100 h1         1 5V0       0.031200
     25 H11         -0.4710    -2.1240     1.6030 h1         1 5V0       0.031200
     26 H12         -5.1860     2.6630    -0.9650 h4         1 5V0       0.045100
     27 H13         -4.8430    -1.6490    -0.6460 ha         1 5V0       0.138000
     28 C6           3.9040     1.3980    -0.3860 c          1 5V0       0.714600
@<TRIPOS>BOND
     1     1     4 1   
     2     1    13 1   
     3     1    17 1   
     4     2     3 ar  
     5     2     9 ar  
     6     2    18 1   
     7     3    11 ar  
     8     3    19 1   
     9     4     5 1   
    10     4    20 1   
    11     4    21 1   
    12     5    14 1   
    13     5    16 2   
    14     6    15 2   
    15     6    16 1   
    16     6    22 1   
    17     7    28 1   
    18     8    28 1   
    19     9    10 ar  
    20     9    28 1   
    21    10    12 ar  
    22    10    23 1   
    23    11    12 ar  
    24    12    13 1   
    25    13    24 1   
    26    13    25 1   
    27    14    15 1   
    28    15    26 1   
    29    16    27 1   
@<TRIPOS>SUBSTRUCTURE
     1 5V0         1 TEMP              0 ****  ****    0 ROOT
