@<TRIPOS>MOLECULE
5V1
   31    32     1     0     0
SMALL
No Charge or Current Charge


@<TRIPOS>ATOM
      1 N1           1.4980     1.9300     0.3340 nb         1 5V1      -0.716000
      2 C4           2.6210     1.9890     1.0840 ca         1 5V1       0.291900
      3 C5           1.3730     0.8960    -0.5390 ca         1 5V1       0.293300
      4 C6           0.0840     0.8460    -1.3810 c3         1 5V1       0.118500
      5 C7          -2.3740     0.4070    -1.3460 c3         1 5V1       0.202100
      6 C8          -3.5230    -0.0290    -0.4450 ca         1 5V1      -0.077300
      7 C10         -4.8780    -1.8020     0.5480 ca         1 5V1      -0.120000
      8 C13         -4.3050     0.9310     0.2280 ca         1 5V1      -0.094500
      9 O1           4.4730    -2.0000    -0.8360 o          1 5V1      -0.713000
     10 C2           3.5380    -0.0420     0.0980 ca         1 5V1      -0.110600
     11 C3           3.6530     1.0400     1.0000 ca         1 5V1      -0.131000
     12 N2          -1.0990     0.3880    -0.6100 n7         1 5V1      -0.851400
     13 C9          -3.8150    -1.3980    -0.2800 ca         1 5V1      -0.094500
     14 C11         -5.6550    -0.8400     1.2150 ca         1 5V1      -0.118000
     15 C12         -5.3680     0.5270     1.0550 ca         1 5V1      -0.120000
     16 C14          2.3610    -0.0990    -0.6820 ca         1 5V1      -0.109000
     17 O2           5.6180    -0.9970     0.6820 o          1 5V1      -0.713000
     18 H1           2.6950     2.8280     1.7750 h4         1 5V1      -0.011900
     19 H2          -0.1000     1.8510    -1.7870 h1         1 5V1       0.030200
     20 H3           0.2490     0.1830    -2.2420 h1         1 5V1       0.030200
     21 H4          -2.3240    -0.2630    -2.2150 h1         1 5V1       0.028700
     22 H5          -2.5810     1.4180    -1.7260 h1         1 5V1       0.028700
     23 H6          -5.0990    -2.8600     0.6710 ha         1 5V1       0.105000
     24 H7          -4.0900     1.9910     0.1090 ha         1 5V1       0.119500
     25 H8           4.5280     1.1510     1.6330 ha         1 5V1       0.133000
     26 H9          -1.1960     1.0110     0.2010 hn         1 5V1       0.422000
     27 H11         -3.2160    -2.1470    -0.7920 ha         1 5V1       0.119500
     28 H12         -6.4780    -1.1520     1.8550 ha         1 5V1       0.102000
     29 H13         -5.9690     1.2720     1.5710 ha         1 5V1       0.105000
     30 H14          2.2050    -0.9050    -1.3930 ha         1 5V1       0.135000
     31 C1           4.6270    -1.0940    -0.0280 c          1 5V1       0.715600
@<TRIPOS>BOND
     1     1     2 ar  
     2     1     3 ar  
     3     2    11 ar  
     4     2    18 1   
     5     3     4 1   
     6     3    16 ar  
     7     4    12 1   
     8     4    19 1   
     9     4    20 1   
    10     5     6 1   
    11     5    12 1   
    12     5    21 1   
    13     5    22 1   
    14     6     8 ar  
    15     6    13 ar  
    16     7    13 ar  
    17     7    14 ar  
    18     7    23 1   
    19     8    15 ar  
    20     8    24 1   
    21     9    31 1   
    22    10    11 ar  
    23    10    16 ar  
    24    10    31 1   
    25    11    25 1   
    26    12    26 1   
    27    13    27 1   
    28    14    15 ar  
    29    14    28 1   
    30    15    29 1   
    31    16    30 1   
    32    17    31 1   
@<TRIPOS>SUBSTRUCTURE
     1 5V1         1 TEMP              0 ****  ****    0 ROOT
