@<TRIPOS>MOLECULE
5V1
   31    32     1     0     0
SMALL
abcg2


@<TRIPOS>ATOM
      1 N1           1.5440     1.9460     0.2970 nb         1 5V1      -0.716000
      2 C4           2.6350     1.8820     1.0520 ca         1 5V1       0.291900
      3 C5           1.3330     0.9660    -0.5800 ca         1 5V1       0.293300
      4 C6           0.0570     1.0480    -1.3710 c3         1 5V1       0.118500
      5 C7          -2.3250     0.6580    -1.2510 c3         1 5V1       0.202100
      6 C8          -3.4340     0.0940    -0.4060 ca         1 5V1      -0.077300
      7 C10         -4.3880    -1.7570     0.8210 ca         1 5V1      -0.120000
      8 C13         -4.5330     0.8680    -0.0520 ca         1 5V1      -0.094500
      9 O1           4.0640    -2.1900    -0.9290 o          1 5V1      -0.713000
     10 C2           3.3500    -0.1750     0.0650 ca         1 5V1      -0.110600
     11 C3           3.5600     0.8540     0.9760 ca         1 5V1      -0.131000
     12 N2          -1.0510     0.5670    -0.5610 n7         1 5V1      -0.851400
     13 C9          -3.3710    -1.2250     0.0440 ca         1 5V1      -0.094500
     14 C11         -5.4860    -0.9750     1.1680 ca         1 5V1      -0.118000
     15 C12         -5.5550     0.3390     0.7300 ca         1 5V1      -0.120000
     16 C14          2.2080    -0.1040    -0.7230 ca         1 5V1      -0.109000
     17 O2           5.2980    -1.3300     0.7200 o          1 5V1      -0.713000
     18 H1           2.7820     2.6960     1.7540 h4         1 5V1      -0.011900
     19 H2          -0.0860     2.0820    -1.7200 h1         1 5V1       0.030200
     20 H3           0.1290     0.4190    -2.2620 h1         1 5V1       0.030200
     21 H4          -2.2440     0.0800    -2.1780 h1         1 5V1       0.028700
     22 H5          -2.5780     1.6860    -1.5540 h1         1 5V1       0.028700
     23 H6          -4.3270    -2.7840     1.1590 ha         1 5V1       0.105000
     24 H7          -4.5940     1.8970    -0.3890 ha         1 5V1       0.119500
     25 H8           4.4310     0.8560     1.6170 ha         1 5V1       0.133000
     26 H9          -1.0970     1.1240     0.2850 hn         1 5V1       0.422000
     27 H11         -2.5180    -1.8380    -0.2210 ha         1 5V1       0.119500
     28 H12         -6.2790    -1.3900     1.7750 ha         1 5V1       0.102000
     29 H13         -6.4020     0.9580     0.9990 ha         1 5V1       0.105000
     30 H14          1.9990    -0.8790    -1.4490 ha         1 5V1       0.135000
     31 C1           4.3300    -1.3410    -0.0610 c          1 5V1       0.715600
@<TRIPOS>BOND
     1     1     2 ar  
     2     1     3 ar  
     3     2    11 ar  
     4     2    18 1   
     5     3     4 1   
     6     3    16 ar  
     7     4    12 1   
     8     4    19 1   
     9     4    20 1   
    10     5     6 1   
    11     5    12 1   
    12     5    21 1   
    13     5    22 1   
    14     6     8 ar  
    15     6    13 ar  
    16     7    13 ar  
    17     7    14 ar  
    18     7    23 1   
    19     8    15 ar  
    20     8    24 1   
    21     9    31 1   
    22    10    11 ar  
    23    10    16 ar  
    24    10    31 1   
    25    11    25 1   
    26    12    26 1   
    27    13    27 1   
    28    14    15 ar  
    29    14    28 1   
    30    15    29 1   
    31    16    30 1   
    32    17    31 1   
@<TRIPOS>SUBSTRUCTURE
     1 5V1         1 TEMP              0 ****  ****    0 ROOT
