@<TRIPOS>MOLECULE
5V2
   52    55     1     0     0
SMALL
abcg2


@<TRIPOS>ATOM
      1 C01          4.2960     4.4790     0.4200 c3         1 5V2       0.077300
      2 N05          3.2780     3.4430     0.3090 n          1 5V2      -0.276000
      3 C06          3.6270     2.1390     0.4790 cc         1 5V2      -0.002400
      4 C08          2.7500     1.1040     0.3920 cd         1 5V2      -0.109400
      5 C09          3.1850    -0.2920     0.5760 ca         1 5V2      -0.033800
      6 C10          2.5150    -1.1390     1.4610 ca         1 5V2      -0.076000
      7 C12          2.9300    -2.4480     1.6310 ca         1 5V2      -0.113000
      8 C14          4.0230    -2.9370     0.9290 ca         1 5V2      -0.057000
      9 C16          4.6960    -2.1000     0.0510 ca         1 5V2      -0.194300
     10 C17          4.2760    -0.7860    -0.1300 ca         1 5V2      -0.057000
     11 C19          5.8790    -2.5800    -0.7300 c3         1 5V2       0.357300
     12 F20          6.1390    -3.8740    -0.5300 f          1 5V2      -0.112667
     13 F21          5.7020    -2.4140    -2.0490 f          1 5V2      -0.112667
     14 F22          6.9910    -1.9020    -0.4090 f          1 5V2      -0.112667
     15 C23          1.4100     1.4650     0.0990 cd         1 5V2      -0.082800
     16 S24          0.0840     0.3990    -0.1460 ss         1 5V2       0.227000
     17 C25         -0.9870     1.7300    -0.4720 cd         1 5V2      -0.294900
     18 C26         -0.3450     2.9240    -0.4110 cc         1 5V2      -0.002000
     19 C28          1.0290     2.7830    -0.0820 cc         1 5V2      -0.219600
     20 C29          1.9840     3.8580     0.0330 c          1 5V2       0.586600
     21 O30          1.7190     5.0450    -0.1020 o          1 5V2      -0.536000
     22 C31         -2.4060     1.5040    -0.8010 cf         1 5V2       0.701800
     23 N32         -2.9840     2.3620    -1.5480 n2         1 5V2      -0.813100
     24 N34         -2.9200     0.3460    -0.2830 nu         1 5V2      -0.943400
     25 C36         -4.2980    -0.0510    -0.4530 c6         1 5V2       0.213500
     26 C38         -4.3850    -1.5740    -0.3370 c6         1 5V2      -0.078400
     27 C41         -5.7870    -2.1030    -0.6040 c6         1 5V2      -0.296400
     28 S44         -6.9610    -1.4290     0.5640 s6         1 5V2       1.076000
     29 O45         -8.3200    -1.7770     0.1520 o          1 5V2      -0.513500
     30 O46         -6.5310    -1.8000     1.9150 o          1 5V2      -0.513500
     31 C47         -6.6880     0.3250     0.3490 c6         1 5V2      -0.296400
     32 C50         -5.2180     0.6680     0.5430 c6         1 5V2      -0.078400
     33 H011         4.3510     5.0580    -0.4990 h1         1 5V2       0.057033
     34 H012         4.0750     5.1510     1.2470 h1         1 5V2       0.057033
     35 H013         5.2590     4.0110     0.5960 h1         1 5V2       0.057033
     36 H06          4.6690     1.9650     0.7110 h4         1 5V2       0.205000
     37 H10          1.6780    -0.7670     2.0390 ha         1 5V2       0.124000
     38 H17          4.7840    -0.1380    -0.8340 ha         1 5V2       0.129000
     39 H12          2.4070    -3.0930     2.3240 ha         1 5V2       0.124000
     40 H14          4.3340    -3.9620     1.0760 ha         1 5V2       0.134000
     41 H26         -0.8360     3.8700    -0.5890 ha         1 5V2       0.170000
     42 H32         -3.9700     2.1630    -1.6850 hn         1 5V2       0.377400
     43 H34         -2.4760    -0.0090     0.5520 hn         1 5V2       0.480000
     44 H36         -4.6020     0.2160    -1.4700 h1         1 5V2       0.064700
     45 H381        -3.7120    -2.0250    -1.0680 hc         1 5V2       0.069700
     46 H382        -4.0460    -1.9000     0.6500 hc         1 5V2       0.069700
     47 H501        -4.9080     0.4300     1.5640 hc         1 5V2       0.069700
     48 H502        -5.1120     1.7480     0.4300 hc         1 5V2       0.069700
     49 H411        -6.1410    -1.8330    -1.6010 h1         1 5V2       0.106450
     50 H412        -5.8400    -3.1880    -0.5010 h1         1 5V2       0.106450
     51 H471        -7.0410     0.5810    -0.6520 h1         1 5V2       0.106450
     52 H472        -7.3260     0.8270     1.0790 h1         1 5V2       0.106450
@<TRIPOS>BOND
     1     1     2 1   
     2     1    33 1   
     3     1    34 1   
     4     1    35 1   
     5     2     3 1   
     6     2    20 1   
     7     3     4 2   
     8     3    36 1   
     9     4     5 1   
    10     4    15 1   
    11     5     6 ar  
    12     5    10 ar  
    13     6     7 ar  
    14     6    37 1   
    15     7     8 ar  
    16     7    39 1   
    17     8     9 ar  
    18     8    40 1   
    19     9    10 ar  
    20     9    11 1   
    21    10    38 1   
    22    11    12 1   
    23    11    13 1   
    24    11    14 1   
    25    15    16 1   
    26    15    19 2   
    27    16    17 1   
    28    17    18 2   
    29    17    22 1   
    30    18    19 1   
    31    18    41 1   
    32    19    20 1   
    33    20    21 2   
    34    22    23 2   
    35    22    24 1   
    36    23    42 1   
    37    24    25 1   
    38    24    43 1   
    39    25    26 1   
    40    25    32 1   
    41    25    44 1   
    42    26    27 1   
    43    26    45 1   
    44    26    46 1   
    45    27    28 1   
    46    27    49 1   
    47    27    50 1   
    48    28    29 2   
    49    28    30 2   
    50    28    31 1   
    51    31    32 1   
    52    31    51 1   
    53    31    52 1   
    54    32    47 1   
    55    32    48 1   
@<TRIPOS>SUBSTRUCTURE
     1 5V2         1 TEMP              0 ****  ****    0 ROOT
