@<TRIPOS>MOLECULE
5V2
   52    55     1     0     0
SMALL
No Charge or Current Charge


@<TRIPOS>ATOM
      1 C01          4.4840     4.2630    -0.7150 c3         1 5V2       0.077300
      2 N05          3.3760     3.3450    -0.3610 n          1 5V2      -0.276000
      3 C06          3.6420     2.0090    -0.0250 cc         1 5V2      -0.002400
      4 C08          2.6680     1.0970     0.3670 cd         1 5V2      -0.109400
      5 C09          3.0420    -0.3090     0.6650 ca         1 5V2      -0.033800
      6 C10          2.3290    -1.0750     1.6120 ca         1 5V2      -0.076000
      7 C12          2.6980    -2.4010     1.8890 ca         1 5V2      -0.113000
      8 C14          3.7930    -2.9840     1.2340 ca         1 5V2      -0.057000
      9 C16          4.5410    -2.2340     0.3040 ca         1 5V2      -0.194300
     10 C17          4.1570    -0.9030     0.0290 ca         1 5V2      -0.057000
     11 C19          5.7380    -2.8540    -0.4270 c3         1 5V2       0.357300
     12 F20          6.2630    -3.9120     0.2340 f          1 5V2      -0.112667
     13 F21          5.3890    -3.2910    -1.6570 f          1 5V2      -0.112667
     14 F22          6.7460    -1.9670    -0.5940 f          1 5V2      -0.112667
     15 C23          1.3030     1.5810     0.3050 cd         1 5V2      -0.082800
     16 S24         -0.1880     0.6450     0.5490 ss         1 5V2       0.227000
     17 C25         -1.1680     2.0950     0.2500 cd         1 5V2      -0.294900
     18 C26         -0.3630     3.1670    -0.0600 cc         1 5V2      -0.002000
     19 C28          1.0270     2.8770    -0.0420 cc         1 5V2      -0.219600
     20 C29          2.0660     3.8650    -0.3800 c          1 5V2       0.586600
     21 O30          1.8180     5.0300    -0.6690 o          1 5V2      -0.536000
     22 C31         -2.6210     2.0910     0.2950 cf         1 5V2       0.701800
     23 N32         -3.3150     3.1150    -0.0020 n2         1 5V2      -0.813100
     24 N34         -3.2610     0.9820     0.7360 nu         1 5V2      -0.943400
     25 C36         -4.3630     0.3600    -0.0080 c6         1 5V2       0.213500
     26 C38         -3.9260    -1.0610    -0.4540 c6         1 5V2      -0.078400
     27 C41         -5.0300    -1.7960    -1.2700 c6         1 5V2      -0.296400
     28 S44         -6.5770    -2.0210    -0.3440 s6         1 5V2       1.076000
     29 O45         -7.6390    -2.4090    -1.2800 o          1 5V2      -0.513500
     30 O46         -6.3040    -2.8450     0.8410 o          1 5V2      -0.513500
     31 C47         -6.8550    -0.3050     0.1850 c6         1 5V2      -0.296400
     32 C50         -5.6230     0.3260     0.8970 c6         1 5V2      -0.078400
     33 H011         4.3380     4.6430    -1.7340 h1         1 5V2       0.057033
     34 H012         4.5000     5.1090    -0.0150 h1         1 5V2       0.057033
     35 H013         5.4520     3.7490    -0.6670 h1         1 5V2       0.057033
     36 H06          4.7020     1.7890    -0.0620 h4         1 5V2       0.205000
     37 H10          1.5130    -0.6390     2.1780 ha         1 5V2       0.124000
     38 H17          4.7150    -0.3430    -0.7170 ha         1 5V2       0.129000
     39 H12          2.1380    -2.9770     2.6230 ha         1 5V2       0.124000
     40 H14          4.0570    -4.0160     1.4600 ha         1 5V2       0.134000
     41 H26         -0.7440     4.1550    -0.3090 ha         1 5V2       0.170000
     42 H32         -4.2770     2.8720     0.2510 hn         1 5V2       0.377400
     43 H34         -2.6220     0.3540     1.2120 hn         1 5V2       0.480000
     44 H36         -4.5980     0.9440    -0.9130 h1         1 5V2       0.064700
     45 H381        -3.0180    -0.9850    -1.0690 hc         1 5V2       0.069700
     46 H382        -3.6520    -1.6630     0.4240 hc         1 5V2       0.069700
     47 H501        -5.4020    -0.2270     1.8210 hc         1 5V2       0.069700
     48 H502        -5.8740     1.3490     1.2080 hc         1 5V2       0.069700
     49 H411        -5.2990    -1.2310    -2.1710 h1         1 5V2       0.106450
     50 H412        -4.7060    -2.8030    -1.5610 h1         1 5V2       0.106450
     51 H471        -7.1150     0.2510    -0.7250 h1         1 5V2       0.106450
     52 H472        -7.7270    -0.3350     0.8490 h1         1 5V2       0.106450
@<TRIPOS>BOND
     1     1     2 1   
     2     1    33 1   
     3     1    34 1   
     4     1    35 1   
     5     2     3 1   
     6     2    20 1   
     7     3     4 2   
     8     3    36 1   
     9     4     5 1   
    10     4    15 1   
    11     5     6 ar  
    12     5    10 ar  
    13     6     7 ar  
    14     6    37 1   
    15     7     8 ar  
    16     7    39 1   
    17     8     9 ar  
    18     8    40 1   
    19     9    10 ar  
    20     9    11 1   
    21    10    38 1   
    22    11    12 1   
    23    11    13 1   
    24    11    14 1   
    25    15    16 1   
    26    15    19 2   
    27    16    17 1   
    28    17    18 2   
    29    17    22 1   
    30    18    19 1   
    31    18    41 1   
    32    19    20 1   
    33    20    21 2   
    34    22    23 2   
    35    22    24 1   
    36    23    42 1   
    37    24    25 1   
    38    24    43 1   
    39    25    26 1   
    40    25    32 1   
    41    25    44 1   
    42    26    27 1   
    43    26    45 1   
    44    26    46 1   
    45    27    28 1   
    46    27    49 1   
    47    27    50 1   
    48    28    29 2   
    49    28    30 2   
    50    28    31 1   
    51    31    32 1   
    52    31    51 1   
    53    31    52 1   
    54    32    47 1   
    55    32    48 1   
@<TRIPOS>SUBSTRUCTURE
     1 5V2         1 TEMP              0 ****  ****    0 ROOT
