@<TRIPOS>MOLECULE
5V3
   34    36     1     0     0
SMALL
No Charge or Current Charge


@<TRIPOS>ATOM
      1 C10         -1.2230    -1.1530    -0.6350 ca         1 5V3       0.314300
      2 C13         -3.5170    -1.5490     0.8250 ca         1 5V3      -0.071000
      3 C01          2.5250    -0.4640    -1.3780 c3         1 5V3       0.204100
      4 C02          3.6460    -0.0280    -0.4450 ca         1 5V3      -0.097300
      5 C03          4.3500    -0.9830     0.3150 ca         1 5V3      -0.094000
      6 C04          5.3890    -0.5830     1.1740 ca         1 5V3      -0.113500
      7 C05          5.7300     0.7760     1.2790 ca         1 5V3      -0.103000
      8 C06          5.0320     1.7340     0.5250 ca         1 5V3      -0.113500
      9 C07          3.9930     1.3340    -0.3340 ca         1 5V3      -0.094000
     10 N08          1.2640    -0.6140    -0.6300 n7         1 5V3      -0.847400
     11 C09          0.0820    -1.0150    -1.4460 c3         1 5V3       0.108500
     12 C11         -2.0660    -0.0220    -0.3730 ca         1 5V3       0.251000
     13 C12         -3.2230    -0.2440     0.3700 ca         1 5V3      -0.191600
     14 C14         -2.6370    -2.5970     0.5170 ca         1 5V3       0.303900
     15 N15         -1.5070    -2.4140    -0.2010 nb         1 5V3      -0.615000
     16 C16         -4.0940     0.9030     0.6550 c          1 5V3       0.713100
     17 N17         -3.6990     2.1110     0.1780 nc         1 5V3      -0.700100
     18 C18         -2.6050     2.3260    -0.5240 cd         1 5V3       0.684100
     19 N19         -1.7510     1.2680    -0.8450 na         1 5V3      -0.901200
     20 O20         -5.1290     0.7920     1.2940 o          1 5V3      -0.518100
     21 H1          -4.4120    -1.7560     1.4070 ha         1 5V3       0.151000
     22 H2           2.4110     0.2820    -2.1770 h1         1 5V3       0.037200
     23 H3           2.8030    -1.4140    -1.8550 h1         1 5V3       0.037200
     24 H4           4.0890    -2.0370     0.2400 ha         1 5V3       0.116000
     25 H5           5.9280    -1.3260     1.7570 ha         1 5V3       0.113500
     26 H6           6.5340     1.0860     1.9430 ha         1 5V3       0.113000
     27 H7           5.2950     2.7870     0.6060 ha         1 5V3       0.113500
     28 H8           3.4570     2.0830    -0.9150 ha         1 5V3       0.116000
     29 H9           1.0680     0.2790    -0.1620 hn         1 5V3       0.409000
     30 H11          0.2850    -1.9770    -1.9360 h1         1 5V3       0.043700
     31 H12         -0.0820    -0.2940    -2.2580 h1         1 5V3       0.043700
     32 H13         -2.8410    -3.6130     0.8540 h4         1 5V3       0.031100
     33 H14         -2.3410     3.3150    -0.8820 h5         1 5V3       0.047800
     34 H15         -0.9280     1.4620    -1.4060 hn         1 5V3       0.511000
@<TRIPOS>BOND
     1     1    11 1   
     2     1    12 ar  
     3     1    15 ar  
     4     2    13 ar  
     5     2    14 ar  
     6     2    21 1   
     7     3     4 1   
     8     3    10 1   
     9     3    22 1   
    10     3    23 1   
    11     4     5 ar  
    12     4     9 ar  
    13     5     6 ar  
    14     5    24 1   
    15     6     7 ar  
    16     6    25 1   
    17     7     8 ar  
    18     7    26 1   
    19     8     9 ar  
    20     8    27 1   
    21     9    28 1   
    22    10    11 1   
    23    10    29 1   
    24    11    30 1   
    25    11    31 1   
    26    12    13 ar  
    27    12    19 1   
    28    13    16 1   
    29    14    15 ar  
    30    14    32 1   
    31    16    17 1   
    32    16    20 2   
    33    17    18 2   
    34    18    19 1   
    35    18    33 1   
    36    19    34 1   
@<TRIPOS>SUBSTRUCTURE
     1 5V3         1 TEMP              0 ****  ****    0 ROOT
