@<TRIPOS>MOLECULE
5V3
   34    36     1     0     0
SMALL
bcc


@<TRIPOS>ATOM
      1 C10         -1.1280    -1.0670    -0.6930 ca         1 5V3       0.379600
      2 C13         -3.3280    -1.6150     0.8590 ca         1 5V3      -0.154300
      3 C01          2.4620    -0.3020    -1.3800 c3         1 5V3       0.204100
      4 C02          3.6010     0.0250    -0.4550 ca         1 5V3      -0.097300
      5 C03          4.0000    -0.8880     0.5210 ca         1 5V3      -0.112000
      6 C04          5.0460    -0.5910     1.3810 ca         1 5V3      -0.131500
      7 C05          5.7070     0.6300     1.2830 ca         1 5V3      -0.121000
      8 C06          5.3130     1.5470     0.3200 ca         1 5V3      -0.131500
      9 C07          4.2640     1.2440    -0.5420 ca         1 5V3      -0.112000
     10 N08          1.2320    -0.5110    -0.6330 n7         1 5V3      -0.792200
     11 C09          0.1130    -0.8180    -1.5060 c3         1 5V3       0.108500
     12 C11         -2.0400    -0.0390    -0.3890 ca         1 5V3       0.047300
     13 C12         -3.1560    -0.3150     0.3970 ca         1 5V3      -0.191600
     14 C14         -2.3870    -2.5610     0.5160 ca         1 5V3       0.369200
     15 N15         -1.3210    -2.2880    -0.2370 nb         1 5V3      -0.615000
     16 C16         -4.1110     0.7690     0.7120 c          1 5V3       0.713100
     17 N17         -3.8380     2.0180     0.2060 nc         1 5V3      -0.700100
     18 C18         -2.7810     2.1930    -0.5170 cd         1 5V3       0.684100
     19 N19         -1.8850     1.2530    -0.8330 na         1 5V3      -0.707600
     20 O20         -5.1000     0.5670     1.3920 o          1 5V3      -0.518100
     21 H1          -4.1810    -1.8770     1.4700 ha         1 5V3       0.169000
     22 H2           2.3670     0.4880    -2.1400 h1         1 5V3       0.037200
     23 H3           2.6820    -1.2260    -1.9230 h1         1 5V3       0.037200
     24 H4           3.4900    -1.8400     0.6030 ha         1 5V3       0.134000
     25 H5           5.3510    -1.3120     2.1280 ha         1 5V3       0.131500
     26 H6           6.5230     0.8610     1.9540 ha         1 5V3       0.131000
     27 H7           5.8170     2.5010     0.2390 ha         1 5V3       0.131500
     28 H8           3.9580     1.9660    -1.2900 ha         1 5V3       0.134000
     29 H9           1.0320     0.3250    -0.0960 hn         1 5V3       0.353800
     30 H11          0.3440    -1.7340    -2.0520 h1         1 5V3       0.043700
     31 H12         -0.0620    -0.0490    -2.2750 h1         1 5V3       0.043700
     32 H13         -2.4870    -3.5850     0.8550 h4         1 5V3       0.031100
     33 H14         -2.5680     3.1770    -0.9180 h5         1 5V3       0.047800
     34 H15         -1.1050     1.5110    -1.4210 hn         1 5V3       0.455800
@<TRIPOS>BOND
     1     1    11 1   
     2     1    12 ar  
     3     1    15 ar  
     4     2    13 ar  
     5     2    14 ar  
     6     2    21 1   
     7     3     4 1   
     8     3    10 1   
     9     3    22 1   
    10     3    23 1   
    11     4     5 ar  
    12     4     9 ar  
    13     5     6 ar  
    14     5    24 1   
    15     6     7 ar  
    16     6    25 1   
    17     7     8 ar  
    18     7    26 1   
    19     8     9 ar  
    20     8    27 1   
    21     9    28 1   
    22    10    11 1   
    23    10    29 1   
    24    11    30 1   
    25    11    31 1   
    26    12    13 ar  
    27    12    19 1   
    28    13    16 1   
    29    14    15 ar  
    30    14    32 1   
    31    16    17 1   
    32    16    20 2   
    33    17    18 2   
    34    18    19 1   
    35    18    33 1   
    36    19    34 1   
@<TRIPOS>SUBSTRUCTURE
     1 5V3         1 TEMP              0 ****  ****    0 ROOT
