@<TRIPOS>MOLECULE
5V4
   21    22     1     0     0
SMALL
abcg2


@<TRIPOS>ATOM
      1 O01          3.0940     0.5340     0.1900 oh         1 5V4      -0.647000
      2 O            1.5130    -2.0090    -0.2790 oh         1 5V4      -0.642000
      3 C01          1.7830     0.3990    -0.2860 c5         1 5V4       0.165300
      4 C02          1.1040    -0.8190     0.3430 c5         1 5V4       0.220600
      5 C03          0.8350     1.5660     0.0390 c5         1 5V4      -0.071100
      6 C04         -0.3560    -0.4770     0.1790 ca         1 5V4      -0.125300
      7 C05         -0.5090     0.8960     0.0150 ca         1 5V4      -0.079300
      8 C06         -1.4530    -1.3220     0.1800 ca         1 5V4      -0.083000
      9 C07         -1.7710     1.4460    -0.1490 ca         1 5V4      -0.095000
     10 C08         -2.7200    -0.7710     0.0190 ca         1 5V4      -0.112000
     11 C           -2.8770     0.6020    -0.1440 ca         1 5V4      -0.106000
     12 H1           3.5290     1.2330    -0.3070 ho         1 5V4       0.447000
     13 H3           1.7680     0.2480    -1.3770 h1         1 5V4       0.051700
     14 H4           1.3460    -0.8360     1.4170 h1         1 5V4       0.055700
     15 H5           1.0570     1.9530     1.0400 hc         1 5V4       0.060700
     16 H6           0.9210     2.3980    -0.6620 hc         1 5V4       0.060700
     17 H7          -1.3360    -2.3930     0.2960 ha         1 5V4       0.114000
     18 H8          -1.8980     2.5130    -0.2870 ha         1 5V4       0.115000
     19 H9          -3.5900    -1.4150     0.0140 ha         1 5V4       0.113000
     20 H10         -3.8690     1.0160    -0.2750 ha         1 5V4       0.113000
     21 H2           1.3590    -2.7410     0.3240 ho         1 5V4       0.447000
@<TRIPOS>BOND
     1     1     3 1   
     2     1    12 1   
     3     2     4 1   
     4     2    21 1   
     5     3     4 1   
     6     3     5 1   
     7     3    13 1   
     8     4     6 1   
     9     4    14 1   
    10     5     7 1   
    11     5    15 1   
    12     5    16 1   
    13     6     7 ar  
    14     6     8 ar  
    15     7     9 ar  
    16     8    10 ar  
    17     8    17 1   
    18     9    11 ar  
    19     9    18 1   
    20    10    11 ar  
    21    10    19 1   
    22    11    20 1   
@<TRIPOS>SUBSTRUCTURE
     1 5V4         1 TEMP              0 ****  ****    0 ROOT
