@<TRIPOS>MOLECULE
5V4
   21    22     1     0     0
SMALL
No Charge or Current Charge


@<TRIPOS>ATOM
      1 O01          3.1550     0.6540     0.2220 oh         1 5V4      -0.647000
      2 O            1.4900    -2.0900    -0.2880 oh         1 5V4      -0.642000
      3 C01          1.8310     0.4120    -0.2730 c5         1 5V4       0.165300
      4 C02          1.1360    -0.8670     0.3680 c5         1 5V4       0.220600
      5 C03          0.8440     1.6010     0.0280 c5         1 5V4      -0.071100
      6 C04         -0.3170    -0.4950     0.1840 ca         1 5V4      -0.125300
      7 C05         -0.4740     0.8680     0.0040 ca         1 5V4      -0.079300
      8 C06         -1.4350    -1.3480     0.2150 ca         1 5V4      -0.083000
      9 C07         -1.7470     1.4350    -0.1630 ca         1 5V4      -0.095000
     10 C08         -2.7200    -0.7960     0.0450 ca         1 5V4      -0.112000
     11 C           -2.8750     0.5940    -0.1450 ca         1 5V4      -0.106000
     12 H1           3.5180     1.4080    -0.2930 ho         1 5V4       0.447000
     13 H3           1.8720     0.2660    -1.3630 h1         1 5V4       0.051700
     14 H4           1.3640    -0.9280     1.4420 h1         1 5V4       0.055700
     15 H5           1.0300     2.0520     1.0100 hc         1 5V4       0.060700
     16 H6           0.9090     2.3940    -0.7250 hc         1 5V4       0.060700
     17 H7          -1.3170    -2.4180     0.3700 ha         1 5V4       0.114000
     18 H8          -1.8600     2.5080    -0.3030 ha         1 5V4       0.115000
     19 H9          -3.5950    -1.4420     0.0630 ha         1 5V4       0.113000
     20 H10         -3.8690     1.0160    -0.2740 ha         1 5V4       0.113000
     21 H2           0.9910    -2.8020     0.1660 ho         1 5V4       0.447000
@<TRIPOS>BOND
     1     1     3 1   
     2     1    12 1   
     3     2     4 1   
     4     2    21 1   
     5     3     4 1   
     6     3     5 1   
     7     3    13 1   
     8     4     6 1   
     9     4    14 1   
    10     5     7 1   
    11     5    15 1   
    12     5    16 1   
    13     6     7 ar  
    14     6     8 ar  
    15     7     9 ar  
    16     8    10 ar  
    17     8    17 1   
    18     9    11 ar  
    19     9    18 1   
    20    10    11 ar  
    21    10    19 1   
    22    11    20 1   
@<TRIPOS>SUBSTRUCTURE
     1 5V4         1 TEMP              0 ****  ****    0 ROOT
