@<TRIPOS>MOLECULE
5V5
   28    29     1     0     0
SMALL
No Charge or Current Charge


@<TRIPOS>ATOM
      1 C1           3.2850     0.4100     0.9640 c3         1 5V5      -0.188100
      2 C2           1.9530    -0.2780     0.6760 ca         1 5V5      -0.019300
      3 C3           1.9020    -1.6650     0.4600 ca         1 5V5      -0.059000
      4 O2           3.6380     1.9270    -0.8240 o          1 5V5      -0.725500
      5 C11         -3.8330     1.9020    -0.1180 cc         1 5V5      -0.295000
      6 C12          0.7630     0.4710     0.6210 ca         1 5V5      -0.066000
      7 O            4.6430     0.0260    -0.9420 o          1 5V5      -0.725500
      8 C            3.9410     0.8390    -0.3580 c          1 5V5       0.724000
      9 C4           0.6770    -2.2990     0.1950 ca         1 5V5      -0.197000
     10 C5          -0.5190    -1.5490     0.1410 ca         1 5V5       0.109100
     11 C6          -1.8720    -3.5710    -0.3190 c3         1 5V5       0.159900
     12 C7          -0.4780    -0.1480     0.3560 ca         1 5V5      -0.059000
     13 C8          -1.6920     0.6750     0.2990 cc         1 5V5      -0.098000
     14 C9          -1.9240     1.6710     1.2150 cd         1 5V5      -0.163000
     15 C10         -3.1410     2.3640     0.9760 cd         1 5V5      -0.128000
     16 S           -2.9820     0.5660    -0.8970 ss         1 5V5       0.231000
     17 H1           3.0680     1.2910     1.5790 hc         1 5V5       0.031200
     18 H2           3.9200    -0.3210     1.4790 hc         1 5V5       0.031200
     19 H3           2.8150    -2.2560     0.4960 ha         1 5V5       0.112000
     20 H5          -4.7760     2.2430    -0.5250 h4         1 5V5       0.132000
     21 H6           0.8050     1.5470     0.7730 ha         1 5V5       0.114000
     22 H7           0.6790    -3.3730     0.0370 ha         1 5V5       0.098000
     23 H8          -1.5180    -4.1370     0.5520 h1         1 5V5       0.029033
     24 H9          -2.9250    -3.8310    -0.4890 h1         1 5V5       0.029033
     25 H10         -1.2990    -3.8820    -1.2010 h1         1 5V5       0.029033
     26 H11         -1.2560     1.9040     2.0390 ha         1 5V5       0.133000
     27 H12         -3.4920     3.1830     1.5990 ha         1 5V5       0.117000
     28 O1          -1.7400    -2.1560    -0.0970 os         1 5V5      -0.357100
@<TRIPOS>BOND
     1     1     2 1   
     2     1     8 1   
     3     1    17 1   
     4     1    18 1   
     5     2     3 ar  
     6     2     6 ar  
     7     3     9 ar  
     8     3    19 1   
     9     4     8 1   
    10     5    15 2   
    11     5    16 1   
    12     5    20 1   
    13     6    12 ar  
    14     6    21 1   
    15     7     8 1   
    16     9    10 ar  
    17     9    22 1   
    18    10    12 ar  
    19    10    28 1   
    20    11    23 1   
    21    11    24 1   
    22    11    25 1   
    23    11    28 1   
    24    12    13 1   
    25    13    14 2   
    26    13    16 1   
    27    14    15 1   
    28    14    26 1   
    29    15    27 1   
@<TRIPOS>SUBSTRUCTURE
     1 5V5         1 TEMP              0 ****  ****    0 ROOT
