@<TRIPOS>MOLECULE
5V5
   28    29     1     0     0
SMALL
bcc


@<TRIPOS>ATOM
      1 C1           3.2110     0.4530     0.9650 c3         1 5V5      -0.188100
      2 C2           1.9230    -0.2620     0.7030 ca         1 5V5      -0.019300
      3 C3           1.8870    -1.6310     0.4780 ca         1 5V5      -0.077000
      4 O2           5.0240     1.5380    -0.1000 o          1 5V5      -0.830800
      5 C11         -3.9710     1.5970    -0.0090 cc         1 5V5      -0.168100
      6 C12          0.7190     0.4280     0.6460 ca         1 5V5      -0.084000
      7 O            3.5610     0.4760    -1.4050 o          1 5V5      -0.830800
      8 C            3.9980     0.8600    -0.3070 c          1 5V5       0.934600
      9 C4           0.6950    -2.2850     0.2060 ca         1 5V5      -0.215000
     10 C5          -0.5000    -1.5770     0.1570 ca         1 5V5       0.109100
     11 C6          -1.7680    -3.5220    -0.3470 c3         1 5V5       0.136700
     12 C7          -0.5050    -0.1920     0.3910 ca         1 5V5      -0.059000
     13 C8          -1.7330     0.6030     0.3950 cc         1 5V5       0.046900
     14 C9          -1.9100     1.8220     1.0000 cd         1 5V5      -0.181000
     15 C10         -3.1850     2.3890     0.7710 cd         1 5V5      -0.146000
     16 S           -3.1740     0.1510    -0.4480 ss         1 5V5      -0.058800
     17 H1           3.0300     1.3500     1.5650 hc         1 5V5       0.031200
     18 H2           3.8690    -0.1750     1.5730 hc         1 5V5       0.031200
     19 H3           2.8000    -2.2120     0.5120 ha         1 5V5       0.130000
     20 H5          -4.9860     1.7760    -0.3260 h4         1 5V5       0.150000
     21 H6           0.7350     1.5010     0.7910 ha         1 5V5       0.132000
     22 H7           0.7130    -3.3530     0.0360 ha         1 5V5       0.116000
     23 H8          -1.4300    -4.1080     0.5130 h1         1 5V5       0.029033
     24 H9          -2.8160    -3.7470    -0.5310 h1         1 5V5       0.029033
     25 H10         -1.1870    -3.8180    -1.2250 h1         1 5V5       0.029033
     26 H11         -1.1560     2.2940     1.6120 ha         1 5V5       0.151000
     27 H12         -3.5040     3.3380     1.1760 ha         1 5V5       0.135000
     28 O1          -1.6950    -2.1400    -0.1040 os         1 5V5      -0.333900
@<TRIPOS>BOND
     1     1     2 1   
     2     1     8 1   
     3     1    17 1   
     4     1    18 1   
     5     2     3 ar  
     6     2     6 ar  
     7     3     9 ar  
     8     3    19 1   
     9     4     8 1   
    10     5    15 2   
    11     5    16 1   
    12     5    20 1   
    13     6    12 ar  
    14     6    21 1   
    15     7     8 1   
    16     9    10 ar  
    17     9    22 1   
    18    10    12 ar  
    19    10    28 1   
    20    11    23 1   
    21    11    24 1   
    22    11    25 1   
    23    11    28 1   
    24    12    13 1   
    25    13    14 2   
    26    13    16 1   
    27    14    15 1   
    28    14    26 1   
    29    15    27 1   
@<TRIPOS>SUBSTRUCTURE
     1 5V5         1 TEMP              0 ****  ****    0 ROOT
