@<TRIPOS>MOLECULE
5V6
   28    29     1     0     0
SMALL
No Charge or Current Charge


@<TRIPOS>ATOM
      1 C1           3.2560     0.6000     1.1020 c3         1 5V6      -0.185100
      2 C2           2.0080    -0.2080     0.7530 ca         1 5V6      -0.024300
      3 C3           0.7490     0.4170     0.6940 ca         1 5V6      -0.047000
      4 O1           3.3940     2.3220    -0.5230 o          1 5V6      -0.726000
      5 C11          0.9570    -2.3220     0.1710 ca         1 5V6      -0.205000
      6 C12          2.1050    -1.5810     0.4830 ca         1 5V6      -0.086000
      7 C            3.8330     1.2370    -0.1730 c          1 5V6       0.723000
      8 O            4.6190     0.5790    -0.8390 o          1 5V6      -0.726000
      9 C4          -0.4250    -0.3000     0.3630 ca         1 5V6      -0.063000
     10 C9          -0.3120    -1.7000     0.1130 ca         1 5V6       0.114100
     11 C10         -1.4150    -3.8720    -0.3580 c3         1 5V6       0.156900
     12 C5          -1.7040     0.4480     0.3100 cc         1 5V6      -0.014000
     13 C6          -2.7170     0.0570    -0.5370 cd         1 5V6      -0.216000
     14 S           -4.0860     1.1800    -0.5000 ss         1 5V6       0.128000
     15 C7          -3.2040     2.2320     0.6130 cd         1 5V6      -0.257000
     16 C8          -1.9780     1.7050     0.9200 cc         1 5V6      -0.112000
     17 H1           2.9450     1.3820     1.8050 hc         1 5V6       0.030700
     18 H2           3.9830    -0.0960     1.5370 hc         1 5V6       0.030700
     19 H3           0.7000     1.4850     0.8810 ha         1 5V6       0.123000
     20 H4           1.0760    -3.3850    -0.0130 ha         1 5V6       0.096000
     21 H5           3.0720    -2.0780     0.5210 ha         1 5V6       0.104000
     22 H7          -0.9900    -4.4030     0.5040 h1         1 5V6       0.027700
     23 H8          -2.4310    -4.2530    -0.5230 h1         1 5V6       0.027700
     24 H9          -0.8170    -4.1040    -1.2480 h1         1 5V6       0.027700
     25 H10         -2.7580    -0.7910    -1.2070 h4         1 5V6       0.153000
     26 H11         -3.6430     3.1600     0.9570 h4         1 5V6       0.137000
     27 H12         -1.2770     2.1970     1.5880 ha         1 5V6       0.135000
     28 O2          -1.4490    -2.4540    -0.1200 os         1 5V6      -0.351100
@<TRIPOS>BOND
     1     1     2 1   
     2     1     7 1   
     3     1    17 1   
     4     1    18 1   
     5     2     3 ar  
     6     2     6 ar  
     7     3     9 ar  
     8     3    19 1   
     9     4     7 1   
    10     5     6 ar  
    11     5    10 ar  
    12     5    20 1   
    13     6    21 1   
    14     7     8 1   
    15     9    10 ar  
    16     9    12 1   
    17    10    28 1   
    18    11    22 1   
    19    11    23 1   
    20    11    24 1   
    21    11    28 1   
    22    12    13 2   
    23    12    16 1   
    24    13    14 1   
    25    13    25 1   
    26    14    15 1   
    27    15    16 2   
    28    15    26 1   
    29    16    27 1   
@<TRIPOS>SUBSTRUCTURE
     1 5V6         1 TEMP              0 ****  ****    0 ROOT
