@<TRIPOS>MOLECULE
5V6
   28    29     1     0     0
SMALL
bcc


@<TRIPOS>ATOM
      1 C1           3.2620     0.5080     0.9690 c3         1 5V6      -0.185100
      2 C2           2.0180    -0.2700     0.6770 ca         1 5V6      -0.024300
      3 C3           0.7840     0.3630     0.5550 ca         1 5V6      -0.065000
      4 O1           3.0900     1.5040    -1.2040 o          1 5V6      -0.831300
      5 C11          0.8900    -2.3650     0.2160 ca         1 5V6      -0.223000
      6 C12          2.0450    -1.6460     0.5030 ca         1 5V6      -0.104000
      7 C            3.8370     1.3040    -0.2300 c          1 5V6       0.933600
      8 O            5.0100     1.7020    -0.0910 o          1 5V6      -0.831300
      9 C4          -0.3960    -0.3200     0.2750 ca         1 5V6      -0.063000
     10 C9          -0.3330    -1.7150     0.0990 ca         1 5V6       0.114100
     11 C10         -1.4850    -3.7570    -0.2870 c3         1 5V6       0.133700
     12 C5          -1.6590     0.4330     0.1910 cc         1 5V6      -0.014000
     13 C6          -2.6750     0.2160    -0.6990 cd         1 5V6      -0.089100
     14 S           -3.9500     1.3420    -0.5150 ss         1 5V6      -0.161800
     15 C7          -3.1460     2.1320     0.7750 cd         1 5V6      -0.130100
     16 C8          -1.9480     1.5500     1.0400 cc         1 5V6      -0.130000
     17 H1           3.0690     1.2330     1.7680 hc         1 5V6       0.030700
     18 H2           4.0370    -0.1560     1.3590 hc         1 5V6       0.030700
     19 H3           0.7360     1.4380     0.6840 ha         1 5V6       0.141000
     20 H4           0.9630    -3.4380     0.0940 ha         1 5V6       0.114000
     21 H5           2.9820    -2.1830     0.5920 ha         1 5V6       0.122000
     22 H7          -1.1350    -4.2500     0.6240 h1         1 5V6       0.027700
     23 H8          -2.5140    -4.0540    -0.4720 h1         1 5V6       0.027700
     24 H9          -0.8680    -4.0900    -1.1260 h1         1 5V6       0.027700
     25 H10         -2.7370    -0.5340    -1.4710 h4         1 5V6       0.171000
     26 H11         -3.6020     2.9710     1.2770 h4         1 5V6       0.155000
     27 H12         -1.2910     1.8880     1.8300 ha         1 5V6       0.153000
     28 O2          -1.4930    -2.3510    -0.1580 os         1 5V6      -0.327900
@<TRIPOS>BOND
     1     1     2 1   
     2     1     7 1   
     3     1    17 1   
     4     1    18 1   
     5     2     3 ar  
     6     2     6 ar  
     7     3     9 ar  
     8     3    19 1   
     9     4     7 1   
    10     5     6 ar  
    11     5    10 ar  
    12     5    20 1   
    13     6    21 1   
    14     7     8 1   
    15     9    10 ar  
    16     9    12 1   
    17    10    28 1   
    18    11    22 1   
    19    11    23 1   
    20    11    24 1   
    21    11    28 1   
    22    12    13 2   
    23    12    16 1   
    24    13    14 1   
    25    13    25 1   
    26    14    15 1   
    27    15    16 2   
    28    15    26 1   
    29    16    27 1   
@<TRIPOS>SUBSTRUCTURE
     1 5V6         1 TEMP              0 ****  ****    0 ROOT
