@<TRIPOS>MOLECULE
5V7
   24    26     1     0     0
SMALL
No Charge or Current Charge


@<TRIPOS>ATOM
      1 O           -4.7390    -0.2160    -0.0270 o          1 5V7      -0.527000
      2 C9          -3.5720    -0.5760    -0.0140 c          1 5V7       0.572600
      3 C6          -2.4130     0.3530     0.0060 ca         1 5V7      -0.176600
      4 C5          -2.6160     1.7460     0.0100 ca         1 5V7      -0.094000
      5 C4          -1.5110     2.5970     0.0290 ca         1 5V7       0.318900
      6 N2          -0.2430     2.1420     0.0430 nb         1 5V7      -0.651000
      7 N4          -3.2260    -1.8780    -0.0150 ns         1 5V7      -0.429400
      8 C8          -1.9390    -2.3370    -0.0010 cc         1 5V7       0.494800
      9 N3          -0.8540    -1.5630     0.0170 nd         1 5V7      -0.578100
     10 C7          -1.0910    -0.1630     0.0200 ca         1 5V7       0.155400
     11 C3          -0.0030     0.7910     0.0390 ca         1 5V7       0.346000
     12 C1           1.4530     0.3940     0.0550 cc         1 5V7       0.273000
     13 N1           1.9500    -0.8990     0.0490 nc         1 5V7      -0.689000
     14 C2           2.4180     1.3900     0.0790 cd         1 5V7      -0.236000
     15 S            4.0350     0.7060     0.0970 ss         1 5V7      -0.106400
     16 C            3.2530    -0.8610     0.0630 cd         1 5V7       0.688300
     17 N            3.8910    -2.0380     0.0730 nv         1 5V7      -1.039900
     18 H1          -3.6170     2.1720    -0.0010 ha         1 5V7       0.146000
     19 H2          -1.6410     3.6790     0.0330 h4         1 5V7       0.027100
     20 H3          -3.9850    -2.5450    -0.0280 hn         1 5V7       0.333500
     21 H4          -1.8830    -3.4180    -0.0050 h5         1 5V7       0.050800
     22 H5           2.2800     2.4640     0.0890 h4         1 5V7       0.171000
     23 H6           3.3120    -2.8340     0.3110 hn         1 5V7       0.475500
     24 H7           4.8430    -2.0480     0.4190 hn         1 5V7       0.475500
@<TRIPOS>BOND
     1     1     2 2   
     2     2     3 1   
     3     2     7 1   
     4     3     4 ar  
     5     3    10 ar  
     6     4     5 ar  
     7     4    18 1   
     8     5     6 ar  
     9     5    19 1   
    10     6    11 ar  
    11     7     8 1   
    12     7    20 1   
    13     8     9 2   
    14     8    21 1   
    15     9    10 1   
    16    10    11 ar  
    17    11    12 1   
    18    12    13 1   
    19    12    14 2   
    20    13    16 2   
    21    14    15 1   
    22    14    22 1   
    23    15    16 1   
    24    16    17 1   
    25    17    23 1   
    26    17    24 1   
@<TRIPOS>SUBSTRUCTURE
     1 5V7         1 TEMP              0 ****  ****    0 ROOT
