@<TRIPOS>MOLECULE
5V7
   24    26     1     0     0
SMALL
bcc


@<TRIPOS>ATOM
      1 O           -4.6960    -0.2340     0.1710 o          1 5V7      -0.602500
      2 C9          -3.5320    -0.5460     0.0190 c          1 5V7       0.715100
      3 C6          -2.3940     0.3720     0.1200 ca         1 5V7      -0.176600
      4 C5          -2.5970     1.7280     0.3600 ca         1 5V7      -0.177300
      5 C4          -1.4880     2.5420     0.4090 ca         1 5V7       0.384200
      6 N2          -0.2430     2.0850     0.2780 nb         1 5V7      -0.651000
      7 N4          -3.1500    -1.8320    -0.2750 ns         1 5V7      -0.496400
      8 C8          -1.8600    -2.2120    -0.4620 cc         1 5V7       0.494800
      9 N3          -0.8460    -1.4360    -0.3620 nd         1 5V7      -0.578100
     10 C7          -1.0950    -0.1240    -0.0490 ca         1 5V7       0.090100
     11 C3          -0.0260     0.7980     0.0730 ca         1 5V7       0.411300
     12 C1           1.3850     0.3960    -0.0510 cc         1 5V7       0.338300
     13 N1           1.8470    -0.7800     0.4800 nc         1 5V7      -0.689000
     14 C2           2.3140     1.1800    -0.6560 cd         1 5V7      -0.174400
     15 S            3.8550     0.4130    -0.5880 ss         1 5V7      -0.251300
     16 C            3.1200    -0.9110     0.2820 cd         1 5V7       0.688300
     17 N            3.8490    -1.9920     0.6470 nv         1 5V7      -0.929500
     18 H1          -3.5910     2.1310     0.4950 ha         1 5V7       0.164000
     19 H2          -1.5940     3.6080     0.5700 h4         1 5V7       0.027100
     20 H3          -3.8760    -2.5310    -0.3730 hn         1 5V7       0.333500
     21 H4          -1.7220    -3.2560    -0.7120 h5         1 5V7       0.050800
     22 H5           2.1800     2.1370    -1.1330 h4         1 5V7       0.189000
     23 H6           3.4180    -2.5980     1.3270 hn         1 5V7       0.420300
     24 H7           4.8420    -1.8810     0.7700 hn         1 5V7       0.420300
@<TRIPOS>BOND
     1     1     2 2   
     2     2     3 1   
     3     2     7 1   
     4     3     4 ar  
     5     3    10 ar  
     6     4     5 ar  
     7     4    18 1   
     8     5     6 ar  
     9     5    19 1   
    10     6    11 ar  
    11     7     8 1   
    12     7    20 1   
    13     8     9 2   
    14     8    21 1   
    15     9    10 1   
    16    10    11 ar  
    17    11    12 1   
    18    12    13 1   
    19    12    14 2   
    20    13    16 2   
    21    14    15 1   
    22    14    22 1   
    23    15    16 1   
    24    16    17 1   
    25    17    23 1   
    26    17    24 1   
@<TRIPOS>SUBSTRUCTURE
     1 5V7         1 TEMP              0 ****  ****    0 ROOT
