@<TRIPOS>MOLECULE
5V8
   52    55     1     0     0
SMALL
No Charge or Current Charge


@<TRIPOS>ATOM
      1 C2           2.6830    -2.7430     0.8380 ca         1 5V8       0.129100
      2 C3           1.9580    -3.8480     0.3420 ca         1 5V8      -0.124000
      3 C4           0.6440    -3.6910    -0.1270 ca         1 5V8      -0.067000
      4 C5           0.0760    -2.4220    -0.0260 ca         1 5V8       0.017100
      5 C10         -4.8690    -0.3670    -1.5390 ca         1 5V8      -0.185500
      6 C11         -5.4400     0.4950    -0.5960 ca         1 5V8       0.157100
      7 C15         -0.2130    -0.2000     0.4250 cc         1 5V8      -0.190400
      8 C16         -0.1140     1.1710     0.9890 c          1 5V8       0.656300
      9 C18         -0.8530     3.5400     0.5950 c3         1 5V8       0.097300
     10 C20          0.7270    -1.3330     0.5210 ca         1 5V8      -0.018800
     11 C24          3.6420     2.0550     0.6320 c6         1 5V8       0.165300
     12 C25          3.5680     3.1340    -0.4760 c6         1 5V8      -0.074400
     13 C26          4.2170     2.6300    -1.7850 c6         1 5V8      -0.077400
     14 O1           3.9800    -2.9650     1.2100 oh         1 5V8      -0.540100
     15 C7          -1.3180    -0.7150    -0.2610 cd         1 5V8       0.127900
     16 C8          -2.7250    -0.2690    -0.3610 ca         1 5V8      -0.097800
     17 C9          -3.5230    -0.7550    -1.4190 ca         1 5V8      -0.037000
     18 C13         -4.6700     0.9620     0.4790 ca         1 5V8      -0.185500
     19 C14         -3.3230     0.5770     0.6020 ca         1 5V8      -0.037000
     20 C21          2.0900    -1.4460     0.9120 ca         1 5V8      -0.126300
     21 C22          2.9310    -0.2190     1.2870 c3         1 5V8       0.218100
     22 O6          -1.1310    -2.0470    -0.5110 os         1 5V8      -0.162200
     23 N17         -0.8010     2.1170     0.2620 ns         1 5V8      -0.495900
     24 O19          0.4980     1.4760     2.0020 o          1 5V8      -0.614100
     25 N23          3.0180     0.7780     0.1910 n3         1 5V8      -0.718600
     26 C27          3.5920     1.2780    -2.2020 c6         1 5V8      -0.074400
     27 C28          3.6600     0.2500    -1.0460 c6         1 5V8       0.165300
     28 H1           2.4360    -4.8230     0.2830 ha         1 5V8       0.133000
     29 H2           0.0950    -4.5210    -0.5640 ha         1 5V8       0.134000
     30 H3          -5.4680    -0.7390    -2.3670 ha         1 5V8       0.126000
     31 H4           0.1640     3.9540     0.6020 h1         1 5V8       0.037033
     32 H5          -1.4550     4.0690    -0.1550 h1         1 5V8       0.037033
     33 H6          -1.3100     3.6710     1.5840 h1         1 5V8       0.037033
     34 H7           4.6960     1.8900     0.9040 h1         1 5V8       0.033200
     35 H8           3.1340     2.4390     1.5290 h1         1 5V8       0.033200
     36 H9           2.5170     3.3970    -0.6590 hc         1 5V8       0.044450
     37 H10          4.0670     4.0510    -0.1370 hc         1 5V8       0.044450
     38 H11          4.0840     3.3710    -2.5850 hc         1 5V8       0.038200
     39 H12          5.2990     2.5090    -1.6400 hc         1 5V8       0.038200
     40 H13          4.3750    -2.1240     1.5170 ho         1 5V8       0.467000
     41 H14         -3.0950    -1.4250    -2.1620 ha         1 5V8       0.129000
     42 H15         -5.1090     1.6140     1.2300 ha         1 5V8       0.126000
     43 H16         -2.7630     0.9140     1.4700 ha         1 5V8       0.129000
     44 H17          2.5110     0.2250     2.1950 h1         1 5V8       0.043200
     45 H18          3.9480    -0.5200     1.5670 h1         1 5V8       0.043200
     46 H19         -6.9720     1.4590     0.0250 ho         1 5V8       0.468000
     47 H20         -1.2780     1.7910    -0.5690 hn         1 5V8       0.322500
     48 H22          2.5440     1.4280    -2.4940 hc         1 5V8       0.044450
     49 H23          4.1100     0.8800    -3.0850 hc         1 5V8       0.044450
     50 H24          4.7130    -0.0020    -0.8500 h1         1 5V8       0.033200
     51 H25          3.1640    -0.6740    -1.3780 h1         1 5V8       0.033200
     52 O12         -6.7450     0.8630    -0.7200 oh         1 5V8      -0.528100
@<TRIPOS>BOND
     1     1     2 ar  
     2     1    14 1   
     3     1    20 ar  
     4     2     3 ar  
     5     2    28 1   
     6     3     4 ar  
     7     3    29 1   
     8     4    10 ar  
     9     4    22 1   
    10     5     6 ar  
    11     5    17 ar  
    12     5    30 1   
    13     6    18 ar  
    14     6    52 1   
    15     7     8 1   
    16     7    10 1   
    17     7    15 2   
    18     8    23 1   
    19     8    24 2   
    20     9    23 1   
    21     9    31 1   
    22     9    32 1   
    23     9    33 1   
    24    10    20 ar  
    25    11    12 1   
    26    11    25 1   
    27    11    34 1   
    28    11    35 1   
    29    12    13 1   
    30    12    36 1   
    31    12    37 1   
    32    13    26 1   
    33    13    38 1   
    34    13    39 1   
    35    14    40 1   
    36    15    16 1   
    37    15    22 1   
    38    16    17 ar  
    39    16    19 ar  
    40    17    41 1   
    41    18    19 ar  
    42    18    42 1   
    43    19    43 1   
    44    20    21 1   
    45    21    25 1   
    46    21    44 1   
    47    21    45 1   
    48    23    47 1   
    49    25    27 1   
    50    26    27 1   
    51    26    48 1   
    52    26    49 1   
    53    27    50 1   
    54    27    51 1   
    55    46    52 1   
@<TRIPOS>SUBSTRUCTURE
     1 5V8         1 TEMP              0 ****  ****    0 ROOT
