@<TRIPOS>MOLECULE
5V8
   52    55     1     0     0
SMALL
bcc


@<TRIPOS>ATOM
      1 C2           2.7370    -2.7140     0.6950 ca         1 5V8       0.129100
      2 C3           2.0180    -3.8380     0.2520 ca         1 5V8      -0.142000
      3 C4           0.6840    -3.7520    -0.0870 ca         1 5V8      -0.085000
      4 C5           0.0940    -2.5100     0.0490 ca         1 5V8       0.017100
      5 C10         -4.7760    -0.3470    -1.4420 ca         1 5V8      -0.203500
      6 C11         -5.2940     0.6330    -0.5960 ca         1 5V8       0.157100
      7 C15         -0.2090    -0.3250     0.4700 cc         1 5V8      -0.190400
      8 C16         -0.0770     1.0850     0.9200 c          1 5V8       0.723300
      9 C18         -0.5020     3.4080     0.3270 c3         1 5V8       0.097300
     10 C20          0.7710    -1.3820     0.5060 ca         1 5V8      -0.018800
     11 C24          3.4100     2.0330     0.6960 c6         1 5V8       0.165300
     12 C25          3.3080     3.1370    -0.3450 c6         1 5V8      -0.074400
     13 C26          3.9540     2.7120    -1.6570 c6         1 5V8      -0.077400
     14 O1           4.0460    -2.9430     0.9560 oh         1 5V8      -0.501100
     15 C7          -1.3690    -0.8940     0.0300 cd         1 5V8       0.127900
     16 C8          -2.7120    -0.3720    -0.1770 ca         1 5V8      -0.097800
     17 C9          -3.5030    -0.8410    -1.2300 ca         1 5V8      -0.055000
     18 C13         -4.5220     1.0990     0.4670 ca         1 5V8      -0.203500
     19 C14         -3.2500     0.5960     0.6710 ca         1 5V8      -0.055000
     20 C21          2.1340    -1.4650     0.8350 ca         1 5V8      -0.126300
     21 C22          2.8810    -0.2270     1.2480 c3         1 5V8       0.218100
     22 O6          -1.1940    -2.2100    -0.2350 os         1 5V8      -0.162200
     23 N17         -0.3980     2.0070     0.0060 ns         1 5V8      -0.562900
     24 O19          0.2250     1.3670     2.0740 o          1 5V8      -0.614100
     25 N23          2.8460     0.7850     0.2140 n3         1 5V8      -0.718600
     26 C27          3.3610     1.3860    -2.1110 c6         1 5V8      -0.074400
     27 C28          3.4790     0.3390    -1.0150 c6         1 5V8       0.165300
     28 H1           2.5370    -4.7840     0.1630 ha         1 5V8       0.151000
     29 H2           0.1370    -4.6150    -0.4410 ha         1 5V8       0.152000
     30 H3          -5.3730    -0.7180    -2.2660 ha         1 5V8       0.144000
     31 H4           0.4410     3.8090     0.7010 h1         1 5V8       0.037033
     32 H5          -0.7690     3.9490    -0.5760 h1         1 5V8       0.037033
     33 H6          -1.2720     3.5920     1.0790 h1         1 5V8       0.037033
     34 H7           4.4700     1.9070     0.9840 h1         1 5V8       0.033200
     35 H8           2.8710     2.3250     1.6000 h1         1 5V8       0.033200
     36 H9           2.2550     3.3690    -0.5190 hc         1 5V8       0.044450
     37 H10          3.7760     4.0430     0.0460 hc         1 5V8       0.044450
     38 H11          3.8200     3.4810    -2.4210 hc         1 5V8       0.038200
     39 H12          5.0340     2.5970    -1.5130 hc         1 5V8       0.038200
     40 H13          4.4930    -2.1330     1.2210 ho         1 5V8       0.428000
     41 H14         -3.1190    -1.5930    -1.9080 ha         1 5V8       0.147000
     42 H15         -4.9180     1.8450     1.1450 ha         1 5V8       0.144000
     43 H16         -2.6870     0.9500     1.5250 ha         1 5V8       0.147000
     44 H17          2.4160     0.1850     2.1460 h1         1 5V8       0.043200
     45 H18          3.9200    -0.4550     1.5460 h1         1 5V8       0.043200
     46 H19         -6.7800     1.7670    -0.2100 ho         1 5V8       0.429000
     47 H20         -0.6010     1.7120    -0.9330 hn         1 5V8       0.322500
     48 H22          2.3040     1.5200    -2.3590 hc         1 5V8       0.044450
     49 H23          3.8600     1.0220    -3.0110 hc         1 5V8       0.044450
     50 H24          4.5470     0.1000    -0.8520 h1         1 5V8       0.033200
     51 H25          2.9990    -0.5840    -1.3440 h1         1 5V8       0.033200
     52 O12         -6.5350     1.0840    -0.8450 oh         1 5V8      -0.489100
@<TRIPOS>BOND
     1     1     2 ar  
     2     1    14 1   
     3     1    20 ar  
     4     2     3 ar  
     5     2    28 1   
     6     3     4 ar  
     7     3    29 1   
     8     4    10 ar  
     9     4    22 1   
    10     5     6 ar  
    11     5    17 ar  
    12     5    30 1   
    13     6    18 ar  
    14     6    52 1   
    15     7     8 1   
    16     7    10 1   
    17     7    15 2   
    18     8    23 1   
    19     8    24 2   
    20     9    23 1   
    21     9    31 1   
    22     9    32 1   
    23     9    33 1   
    24    10    20 ar  
    25    11    12 1   
    26    11    25 1   
    27    11    34 1   
    28    11    35 1   
    29    12    13 1   
    30    12    36 1   
    31    12    37 1   
    32    13    26 1   
    33    13    38 1   
    34    13    39 1   
    35    14    40 1   
    36    15    16 1   
    37    15    22 1   
    38    16    17 ar  
    39    16    19 ar  
    40    17    41 1   
    41    18    19 ar  
    42    18    42 1   
    43    19    43 1   
    44    20    21 1   
    45    21    25 1   
    46    21    44 1   
    47    21    45 1   
    48    23    47 1   
    49    25    27 1   
    50    26    27 1   
    51    26    48 1   
    52    26    49 1   
    53    27    50 1   
    54    27    51 1   
    55    46    52 1   
@<TRIPOS>SUBSTRUCTURE
     1 5V8         1 TEMP              0 ****  ****    0 ROOT
