@<TRIPOS>MOLECULE
5VA
   27    28     1     0     0
SMALL
abcg2


@<TRIPOS>ATOM
      1 C14         20.7460    -6.3780     1.5390 c3         1 5VA       0.142100
      2 N13         19.8340    -7.4950     1.7720 n7         1 5VA      -0.860400
      3 C12         20.3190    -8.7420     1.1750 c3         1 5VA       0.201100
      4 C2          19.3260    -9.8590     1.3640 ca         1 5VA      -0.090300
      5 C3          18.5910   -10.3510     0.2870 ca         1 5VA      -0.106000
      6 C4          17.6660   -11.3740     0.4800 ca         1 5VA      -0.114000
      7 C5          17.4640   -11.9070     1.7450 ca         1 5VA      -0.097000
      8 C6          18.1880   -11.4250     2.8450 ca         1 5VA      -0.015000
      9 C1          19.1170   -10.4030     2.6290 ca         1 5VA      -0.074000
     10 C7          17.9710   -11.9800     4.1920 cc         1 5VA      -0.057000
     11 C11         18.1860   -11.2860     5.3590 cd         1 5VA      -0.231000
     12 S10         17.8270   -12.2270     6.7490 ss         1 5VA       0.194000
     13 C9          17.3800   -13.5820     5.7860 cd         1 5VA      -0.242000
     14 C8          17.5020   -13.3090     4.4560 cc         1 5VA      -0.119000
     15 H1          20.3090    -5.4610     1.9350 h1         1 5VA       0.030700
     16 H2          21.6870    -6.5610     2.0630 h1         1 5VA       0.030700
     17 H3          20.9800    -6.2210     0.4750 h1         1 5VA       0.030700
     18 H4          18.9280    -7.2770     1.3700 hn         1 5VA       0.409000
     19 H6          21.2640    -8.9960     1.6650 h1         1 5VA       0.036700
     20 H7          20.5360    -8.6260     0.1020 h1         1 5VA       0.036700
     21 H8          18.7470    -9.9370    -0.7010 ha         1 5VA       0.109000
     22 H9          17.0960   -11.7530    -0.3590 ha         1 5VA       0.112000
     23 H10         16.7310   -12.6910     1.8850 ha         1 5VA       0.113000
     24 H11         19.7050   -10.0320     3.4600 ha         1 5VA       0.121000
     25 H12         18.5130   -10.2650     5.4720 h4         1 5VA       0.154000
     26 H13         17.0650   -14.5020     6.2520 h4         1 5VA       0.150000
     27 H14         17.2850   -14.0330     3.6840 ha         1 5VA       0.134000
@<TRIPOS>BOND
     1     1     2 1   
     2     1    15 1   
     3     1    16 1   
     4     1    17 1   
     5     2     3 1   
     6     2    18 1   
     7     3     4 1   
     8     3    19 1   
     9     3    20 1   
    10     4     5 ar  
    11     4     9 ar  
    12     5     6 ar  
    13     5    21 1   
    14     6     7 ar  
    15     6    22 1   
    16     7     8 ar  
    17     7    23 1   
    18     8     9 ar  
    19     8    10 1   
    20     9    24 1   
    21    10    11 2   
    22    10    14 1   
    23    11    12 1   
    24    11    25 1   
    25    12    13 1   
    26    13    14 2   
    27    13    26 1   
    28    14    27 1   
@<TRIPOS>SUBSTRUCTURE
     1 5VA         1 TEMP              0 ****  ****    0 ROOT
