@<TRIPOS>MOLECULE
5VA
   27    28     1     0     0
SMALL
No Charge or Current Charge


@<TRIPOS>ATOM
      1 C14         20.5650    -6.2150     1.4470 c3         1 5VA       0.142100
      2 N13         19.7120    -7.4080     1.6070 n7         1 5VA      -0.860400
      3 C12         20.3570    -8.6890     1.2650 c3         1 5VA       0.201100
      4 C2          19.3760    -9.8420     1.4290 ca         1 5VA      -0.090300
      5 C3          18.6860   -10.3490     0.3150 ca         1 5VA      -0.106000
      6 C4          17.7890   -11.4140     0.4730 ca         1 5VA      -0.114000
      7 C5          17.5770   -11.9780     1.7420 ca         1 5VA      -0.097000
      8 C6          18.2560   -11.4890     2.8820 ca         1 5VA      -0.015000
      9 C1          19.1580   -10.4110     2.7000 ca         1 5VA      -0.074000
     10 C7          18.0130   -12.1020     4.2080 cc         1 5VA      -0.057000
     11 C11         18.6710   -11.6380     5.3280 cd         1 5VA      -0.231000
     12 S10         18.2110   -12.5320     6.7870 ss         1 5VA       0.194000
     13 C9          17.1140   -13.5390     5.8340 cd         1 5VA      -0.242000
     14 C8          17.1340   -13.1800     4.5120 cc         1 5VA      -0.119000
     15 H1          20.0140    -5.3060     1.7250 h1         1 5VA       0.030700
     16 H2          21.4560    -6.2810     2.0860 h1         1 5VA       0.030700
     17 H3          20.8960    -6.1060     0.4050 h1         1 5VA       0.030700
     18 H4          18.8910    -7.3020     0.9990 hn         1 5VA       0.409000
     19 H6          21.2290    -8.8640     1.9120 h1         1 5VA       0.036700
     20 H7          20.7200    -8.6700     0.2280 h1         1 5VA       0.036700
     21 H8          18.8450    -9.9180    -0.6720 ha         1 5VA       0.109000
     22 H9          17.2560   -11.8060    -0.3910 ha         1 5VA       0.112000
     23 H10         16.8750   -12.8020     1.8220 ha         1 5VA       0.113000
     24 H11         19.7050    -9.9920     3.5380 ha         1 5VA       0.121000
     25 H12         19.3940   -10.8400     5.4250 h4         1 5VA       0.154000
     26 H13         16.5350   -14.3200     6.3110 h4         1 5VA       0.150000
     27 H14         16.5280   -13.6800     3.7640 ha         1 5VA       0.134000
@<TRIPOS>BOND
     1     1     2 1   
     2     1    15 1   
     3     1    16 1   
     4     1    17 1   
     5     2     3 1   
     6     2    18 1   
     7     3     4 1   
     8     3    19 1   
     9     3    20 1   
    10     4     5 ar  
    11     4     9 ar  
    12     5     6 ar  
    13     5    21 1   
    14     6     7 ar  
    15     6    22 1   
    16     7     8 ar  
    17     7    23 1   
    18     8     9 ar  
    19     8    10 1   
    20     9    24 1   
    21    10    11 2   
    22    10    14 1   
    23    11    12 1   
    24    11    25 1   
    25    12    13 1   
    26    13    14 2   
    27    13    26 1   
    28    14    27 1   
@<TRIPOS>SUBSTRUCTURE
     1 5VA         1 TEMP              0 ****  ****    0 ROOT
