@<TRIPOS>MOLECULE
5VB
   31    33     1     0     0
SMALL
bcc


@<TRIPOS>ATOM
      1 C10        -17.2730   -12.7340    -6.7360 ca         1 5VB      -0.127000
      2 C13        -16.8630   -15.5440    -4.2650 cc         1 5VB      -0.058000
      3 C15        -17.0430   -17.3130    -2.7650 cd         1 5VB      -0.120100
      4 C17        -15.9270   -16.4090    -4.7620 cd         1 5VB      -0.114100
      5 C02        -18.5830   -11.0730    -1.2040 c          1 5VB       0.698500
      6 C03        -17.6050   -11.0710    -0.0430 c5         1 5VB      -0.132200
      7 C04        -16.2850   -10.8180    -0.6970 c2         1 5VB      -0.257200
      8 C05        -16.4860   -10.7010    -2.0070 c2         1 5VB      -0.022400
      9 N06        -17.8420   -10.8460    -2.3290 n          1 5VB      -0.402000
     10 C08        -17.8650   -11.9200    -4.5480 ca         1 5VB      -0.110300
     11 C09        -17.6940   -11.7000    -5.9110 ca         1 5VB      -0.123000
     12 C11        -17.0120   -13.9880    -6.2100 ca         1 5VB      -0.115000
     13 C12        -17.1640   -14.2260    -4.8420 ca         1 5VB      -0.008000
     14 C14        -17.5040   -16.0810    -3.1040 cc         1 5VB      -0.136000
     15 S16        -15.8220   -17.8450    -3.8420 ss         1 5VB      -0.078800
     16 C18        -17.5970   -13.1800    -4.0270 ca         1 5VB      -0.102000
     17 H1         -17.1480   -12.5600    -7.7970 ha         1 5VB       0.132000
     18 H2         -17.3670   -17.9400    -1.9480 h4         1 5VB       0.169000
     19 H3         -15.2740   -16.2620    -5.6090 h4         1 5VB       0.168000
     20 H4         -17.8860   -10.3040     0.6840 hc         1 5VB       0.088200
     21 H5         -17.6520   -12.0280     0.4850 hc         1 5VB       0.088200
     22 H6         -15.3370   -10.7460    -0.1890 ha         1 5VB       0.159000
     23 H7         -15.7710   -10.5170    -2.7950 h4         1 5VB       0.166000
     24 H8         -18.1000    -9.8350    -4.1250 h1         1 5VB       0.068700
     25 H9         -19.4480   -10.8240    -3.6030 h1         1 5VB       0.068700
     26 H10        -17.8860   -10.7190    -6.3280 ha         1 5VB       0.130000
     27 H11        -16.6990   -14.7890    -6.8680 ha         1 5VB       0.133000
     28 H12        -18.2910   -15.5770    -2.5600 ha         1 5VB       0.157000
     29 H13        -17.7060   -13.3480    -2.9620 ha         1 5VB       0.139000
     30 C07        -18.3590   -10.7940    -3.6710 c3         1 5VB       0.152300
     31 O01        -19.7860   -11.2400    -1.1670 o          1 5VB      -0.607500
@<TRIPOS>BOND
     1     1    11 ar  
     2     1    12 ar  
     3     1    17 1   
     4     2     4 2   
     5     2    13 1   
     6     2    14 1   
     7     3    14 2   
     8     3    15 1   
     9     3    18 1   
    10     4    15 1   
    11     4    19 1   
    12     5     6 1   
    13     5     9 1   
    14     5    31 2   
    15     6     7 1   
    16     6    20 1   
    17     6    21 1   
    18     7     8 2   
    19     7    22 1   
    20     8     9 1   
    21     8    23 1   
    22     9    30 1   
    23    10    11 ar  
    24    10    16 ar  
    25    10    30 1   
    26    11    26 1   
    27    12    13 ar  
    28    12    27 1   
    29    13    16 ar  
    30    14    28 1   
    31    16    29 1   
    32    24    30 1   
    33    25    30 1   
@<TRIPOS>SUBSTRUCTURE
     1 5VB         1 TEMP              0 ****  ****    0 ROOT
