@<TRIPOS>MOLECULE
5VB
   31    33     1     0     0
SMALL
No Charge or Current Charge


@<TRIPOS>ATOM
      1 C10        -16.4490   -12.5990    -6.2430 ca         1 5VB      -0.109000
      2 C13        -17.1090   -15.8750    -4.3850 cc         1 5VB      -0.058000
      3 C15        -17.5730   -17.8260    -3.1630 cd         1 5VB      -0.247000
      4 C17        -16.4130   -16.7980    -5.1350 cd         1 5VB      -0.241000
      5 C02        -18.1470   -11.3350    -1.0280 c          1 5VB       0.556000
      6 C03        -17.1570   -10.5790    -0.1050 c5         1 5VB      -0.132200
      7 C04        -16.4610    -9.5830    -1.0290 c2         1 5VB      -0.307200
      8 C05        -16.9730    -9.7370    -2.2480 c2         1 5VB      -0.072400
      9 N06        -17.9510   -10.7330    -2.2830 n          1 5VB      -0.335000
     10 C08        -17.8900   -12.1440    -4.3420 ca         1 5VB      -0.110300
     11 C09        -17.1800   -11.6910    -5.4660 ca         1 5VB      -0.105000
     12 C11        -16.4190   -13.9620    -5.9020 ca         1 5VB      -0.097000
     13 C12        -17.1240   -14.4450    -4.7720 ca         1 5VB      -0.008000
     14 C14        -17.7630   -16.4740    -3.2700 cc         1 5VB      -0.118000
     15 S16        -16.5520   -18.4350    -4.4710 ss         1 5VB       0.211000
     16 C18        -17.8570   -13.5110    -4.0030 ca         1 5VB      -0.084000
     17 H1         -15.8990   -12.2470    -7.1130 ha         1 5VB       0.114000
     18 H2         -17.9600   -18.5030    -2.4110 h4         1 5VB       0.151000
     19 H3         -15.8250   -16.6590    -6.0310 h4         1 5VB       0.150000
     20 H4         -17.7190   -10.1040     0.7060 hc         1 5VB       0.088200
     21 H5         -16.4760   -11.3020     0.3570 hc         1 5VB       0.088200
     22 H6         -15.6810    -8.8670    -0.7560 ha         1 5VB       0.209000
     23 H7         -16.7190    -9.2010    -3.1670 h4         1 5VB       0.216000
     24 H8         -18.9320   -10.2760    -4.0820 h1         1 5VB       0.068700
     25 H9         -19.6350   -11.6260    -3.1910 h1         1 5VB       0.068700
     26 H10        -17.1940   -10.6370    -5.7370 ha         1 5VB       0.112000
     27 H11        -15.8380   -14.6250    -6.5320 ha         1 5VB       0.115000
     28 H12        -18.3610   -15.9130    -2.5600 ha         1 5VB       0.139000
     29 H13        -18.4110   -13.8340    -3.1280 ha         1 5VB       0.121000
     30 C07        -18.6840   -11.1640    -3.4870 c3         1 5VB       0.152300
     31 O01        -18.9210   -12.2470    -0.7680 o          1 5VB      -0.532000
@<TRIPOS>BOND
     1     1    11 ar  
     2     1    12 ar  
     3     1    17 1   
     4     2     4 2   
     5     2    13 1   
     6     2    14 1   
     7     3    14 2   
     8     3    15 1   
     9     3    18 1   
    10     4    15 1   
    11     4    19 1   
    12     5     6 1   
    13     5     9 1   
    14     5    31 2   
    15     6     7 1   
    16     6    20 1   
    17     6    21 1   
    18     7     8 2   
    19     7    22 1   
    20     8     9 1   
    21     8    23 1   
    22     9    30 1   
    23    10    11 ar  
    24    10    16 ar  
    25    10    30 1   
    26    11    26 1   
    27    12    13 ar  
    28    12    27 1   
    29    13    16 ar  
    30    14    28 1   
    31    16    29 1   
    32    24    30 1   
    33    25    30 1   
@<TRIPOS>SUBSTRUCTURE
     1 5VB         1 TEMP              0 ****  ****    0 ROOT
