@<TRIPOS>MOLECULE
5VC
   51    54     1     0     0
SMALL
bcc


@<TRIPOS>ATOM
      1 C13          4.0890    -0.7120    -0.5220 ca         1 5VC       0.662200
      2 C14          3.9510    -2.0960    -0.4030 ca         1 5VC      -0.282300
      3 C15          2.6830    -2.6170    -0.5980 ca         1 5VC      -0.083000
      4 C16          1.6190    -1.7780    -0.8890 ca         1 5VC      -0.291300
      5 C11          1.8580    -0.4090    -0.9790 ca         1 5VC       0.488600
      6 C21          8.2040    -1.8500     0.3080 cc         1 5VC       0.386200
      7 C27         -7.6330     0.9590     0.3100 ca         1 5VC      -0.155000
      8 O23         -3.6960    -0.3360     0.1940 os         1 5VC      -0.316900
      9 C24         -4.9330     0.1700     0.2460 ca         1 5VC       0.148100
     10 C25         -5.9600    -0.7170    -0.0880 ca         1 5VC       0.089900
     11 C26         -7.2840    -0.3350    -0.0560 ca         1 5VC       0.009400
     12 C18          6.5280    -0.4990    -0.1060 cd         1 5VC       0.746300
     13 N22          6.8610    -1.7380     0.0730 nc         1 5VC      -0.741000
     14 S19          7.8550     0.6290     0.0030 ss         1 5VC      -0.252300
     15 C20          8.9130    -0.7000     0.3130 cd         1 5VC      -0.245400
     16 N17          5.2830    -0.0230    -0.3650 nu         1 5VC      -0.830600
     17 C10          0.7480     0.5600    -1.2550 c3         1 5VC      -0.112700
     18 C1           0.2660     1.3300    -0.0030 c6         1 5VC      -0.173000
     19 C7           1.4020     2.2950     0.4500 c          1 5VC       0.941600
     20 O8           1.7220     3.1810    -0.3680 o          1 5VC      -0.828800
     21 O9           1.8810     2.1430     1.5890 o          1 5VC      -0.828800
     22 C2          -0.1510     0.3790     1.1230 c6         1 5VC      -0.052900
     23 C3          -1.4090    -0.4310     0.8180 c6         1 5VC      -0.092400
     24 C4          -2.5650     0.4930     0.4870 c6         1 5VC       0.151100
     25 F30         -5.6370    -1.9630    -0.4430 f          1 5VC      -0.121900
     26 CL3         -8.4920    -1.4900    -0.4800 cl         1 5VC      -0.101400
     27 C28         -6.6240     1.8450     0.6390 ca         1 5VC      -0.098000
     28 C29         -5.2870     1.4660     0.6100 ca         1 5VC      -0.199000
     29 C5          -2.2160     1.3970    -0.6840 c6         1 5VC      -0.092400
     30 C6          -0.9490     2.1950    -0.3880 c6         1 5VC      -0.052900
     31 N12          3.0740     0.0940    -0.8070 nb         1 5VC      -0.688000
     32 H1           4.7930    -2.7280    -0.1760 ha         1 5VC       0.164000
     33 H2           2.5300    -3.6860    -0.5220 ha         1 5VC       0.119000
     34 H3           0.6230    -2.1720    -1.0430 ha         1 5VC       0.134000
     35 H6           9.9680    -0.5520     0.4750 h4         1 5VC       0.168000
     36 H7           5.1750     0.9750    -0.4700 hn         1 5VC       0.481800
     37 H8           1.0870     1.2940    -1.9880 hc         1 5VC       0.047700
     38 H9          -0.0800     0.0170    -1.7120 hc         1 5VC       0.047700
     39 H11          0.6630    -0.3040     1.3720 hc         1 5VC       0.052200
     40 H12         -0.3330     0.9680     2.0260 hc         1 5VC       0.052200
     41 H13         -1.2460    -1.1200    -0.0180 hc         1 5VC       0.037450
     42 H14         -1.6640    -1.0460     1.6850 hc         1 5VC       0.037450
     43 H15         -2.7840     1.1010     1.3750 h1         1 5VC       0.043700
     44 H16         -6.8770     2.8570     0.9250 ha         1 5VC       0.132000
     45 H17         -4.5320     2.1950     0.8710 ha         1 5VC       0.154000
     46 H18         -2.0940     0.7830    -1.5820 hc         1 5VC       0.037450
     47 H19         -3.0310     2.0940    -0.8980 hc         1 5VC       0.037450
     48 H20         -1.1600     2.8850     0.4380 hc         1 5VC       0.052200
     49 H21         -0.7050     2.8200    -1.2470 hc         1 5VC       0.052200
     50 H4           8.6300    -2.8290     0.4770 h4         1 5VC       0.027100
     51 H5          -8.6720     1.2560     0.3350 ha         1 5VC       0.141000
@<TRIPOS>BOND
     1     1     2 ar  
     2     1    16 1   
     3     1    31 ar  
     4     2     3 ar  
     5     2    32 1   
     6     3     4 ar  
     7     3    33 1   
     8     4     5 ar  
     9     4    34 1   
    10     5    17 1   
    11     5    31 ar  
    12     6    13 1   
    13     6    15 2   
    14     6    50 1   
    15     7    11 ar  
    16     7    27 ar  
    17     7    51 1   
    18     8     9 1   
    19     8    24 1   
    20     9    10 ar  
    21     9    28 ar  
    22    10    11 ar  
    23    10    25 1   
    24    11    26 1   
    25    12    13 2   
    26    12    14 1   
    27    12    16 1   
    28    14    15 1   
    29    15    35 1   
    30    16    36 1   
    31    17    18 1   
    32    17    37 1   
    33    17    38 1   
    34    18    19 1   
    35    18    22 1   
    36    18    30 1   
    37    19    20 1   
    38    19    21 1   
    39    22    23 1   
    40    22    39 1   
    41    22    40 1   
    42    23    24 1   
    43    23    41 1   
    44    23    42 1   
    45    24    29 1   
    46    24    43 1   
    47    27    28 ar  
    48    27    44 1   
    49    28    45 1   
    50    29    30 1   
    51    29    46 1   
    52    29    47 1   
    53    30    48 1   
    54    30    49 1   
@<TRIPOS>SUBSTRUCTURE
     1 5VC         1 TEMP              0 ****  ****    0 ROOT
