@<TRIPOS>MOLECULE
5VC
   51    54     1     0     0
SMALL
No Charge or Current Charge


@<TRIPOS>ATOM
      1 C13          4.2830    -0.7830    -0.4190 ca         1 5VC       0.596900
      2 C14          4.2040    -2.0950     0.0780 ca         1 5VC      -0.199000
      3 C15          2.9400    -2.6370     0.3480 ca         1 5VC      -0.065000
      4 C16          1.8190    -1.8270     0.1170 ca         1 5VC      -0.208000
      5 C11          2.0000    -0.5120    -0.3550 ca         1 5VC       0.423300
      6 C21          8.5280    -1.6420    -0.8280 cc         1 5VC       0.320900
      7 C27         -7.6950     1.2700    -0.6440 ca         1 5VC      -0.137000
      8 O23         -3.9090    -0.3640     0.2170 os         1 5VC      -0.340100
      9 C24         -5.1440     0.2080    -0.0550 ca         1 5VC       0.148100
     10 C25         -6.0820    -0.5490    -0.7910 ca         1 5VC       0.125000
     11 C26         -7.3520    -0.0170    -1.0860 ca         1 5VC       0.101000
     12 C18          6.7310    -0.3790    -0.8240 cd         1 5VC       0.746300
     13 N22          7.1660    -1.6090    -0.6640 nc         1 5VC      -0.741000
     14 S19          7.9360     0.8430    -1.2080 ss         1 5VC      -0.107400
     15 C20          9.1290    -0.4420    -1.1210 cd         1 5VC      -0.307000
     16 N17          5.4150    -0.0980    -0.7360 nu         1 5VC      -0.885800
     17 C10          0.8010     0.3930    -0.6460 c3         1 5VC      -0.112700
     18 C1           0.1910     1.1660     0.5930 c6         1 5VC      -0.173000
     19 C7           1.3130     2.0600     1.2370 c          1 5VC       0.731000
     20 O8           1.7580     2.9760     0.5590 o          1 5VC      -0.723500
     21 O9           1.9540     1.5890     2.1670 o          1 5VC      -0.723500
     22 C2          -0.4260     0.1990     1.6700 c6         1 5VC      -0.052900
     23 C3          -1.6800    -0.5700     1.1750 c6         1 5VC      -0.092400
     24 C4          -2.7920     0.4010     0.7180 c6         1 5VC       0.174300
     25 F30         -5.7580    -1.7940    -1.2210 f          1 5VC      -0.157000
     26 Cl3         -8.5290    -0.9520    -2.0100 cl         1 5VC      -0.193000
     27 C28         -6.7730     2.0280     0.0970 ca         1 5VC      -0.080000
     28 C29         -5.5040     1.5010     0.3940 ca         1 5VC      -0.181000
     29 C5          -2.2400     1.3620    -0.3680 c6         1 5VC      -0.092400
     30 C6          -0.9750     2.1120     0.1280 c6         1 5VC      -0.052900
     31 N12          3.2220    -0.0070    -0.6370 nb         1 5VC      -0.688000
     32 H1           5.0920    -2.6880     0.2540 ha         1 5VC       0.146000
     33 H2           2.8320    -3.6530     0.7230 ha         1 5VC       0.101000
     34 H3           0.8210    -2.2120     0.3020 ha         1 5VC       0.116000
     35 H6          10.1800    -0.2470    -1.2880 h4         1 5VC       0.150000
     36 H7           5.2000     0.8550    -0.9890 hn         1 5VC       0.537000
     37 H8           1.0890     1.1230    -1.4130 hc         1 5VC       0.047700
     38 H9           0.0340    -0.2170    -1.1310 hc         1 5VC       0.047700
     39 H11          0.3250    -0.5200     2.0210 hc         1 5VC       0.052200
     40 H12         -0.7060     0.7820     2.5590 hc         1 5VC       0.052200
     41 H13         -1.4170    -1.2520     0.3560 hc         1 5VC       0.037450
     42 H14         -2.0620    -1.2020     1.9890 hc         1 5VC       0.037450
     43 H15         -3.1120     0.9750     1.5990 h1         1 5VC       0.043700
     44 H16         -7.0440     3.0230     0.4440 ha         1 5VC       0.114000
     45 H17         -4.8200     2.1110     0.9770 ha         1 5VC       0.136000
     46 H18         -2.0180     0.8020    -1.2860 hc         1 5VC       0.037450
     47 H19         -3.0040     2.1000    -0.6450 hc         1 5VC       0.037450
     48 H20         -1.2610     2.7710     0.9600 hc         1 5VC       0.052200
     49 H21         -0.6240     2.7790    -0.6710 hc         1 5VC       0.052200
     50 H4           9.0320    -2.5930    -0.7210 h4         1 5VC       0.027100
     51 H5          -8.6770     1.6800    -0.8720 ha         1 5VC       0.123000
@<TRIPOS>BOND
     1     1     2 ar  
     2     1    16 1   
     3     1    31 ar  
     4     2     3 ar  
     5     2    32 1   
     6     3     4 ar  
     7     3    33 1   
     8     4     5 ar  
     9     4    34 1   
    10     5    17 1   
    11     5    31 ar  
    12     6    13 1   
    13     6    15 2   
    14     6    50 1   
    15     7    11 ar  
    16     7    27 ar  
    17     7    51 1   
    18     8     9 1   
    19     8    24 1   
    20     9    10 ar  
    21     9    28 ar  
    22    10    11 ar  
    23    10    25 1   
    24    11    26 1   
    25    12    13 2   
    26    12    14 1   
    27    12    16 1   
    28    14    15 1   
    29    15    35 1   
    30    16    36 1   
    31    17    18 1   
    32    17    37 1   
    33    17    38 1   
    34    18    19 1   
    35    18    22 1   
    36    18    30 1   
    37    19    20 1   
    38    19    21 1   
    39    22    23 1   
    40    22    39 1   
    41    22    40 1   
    42    23    24 1   
    43    23    41 1   
    44    23    42 1   
    45    24    29 1   
    46    24    43 1   
    47    27    28 ar  
    48    27    44 1   
    49    28    45 1   
    50    29    30 1   
    51    29    46 1   
    52    29    47 1   
    53    30    48 1   
    54    30    49 1   
@<TRIPOS>SUBSTRUCTURE
     1 5VC         1 TEMP              0 ****  ****    0 ROOT
