@<TRIPOS>MOLECULE
5VD
   48    51     1     0     0
SMALL
No Charge or Current Charge


@<TRIPOS>ATOM
      1 C1           4.8810     0.8220     0.2740 ca         1 5VD       0.193100
      2 C2           5.9240    -0.1110     0.2140 ca         1 5VD      -0.100000
      3 O14         -5.5210     0.0920    -0.4930 oh         1 5VD      -0.653000
      4 C3           5.6450    -1.4680     0.0140 ca         1 5VD      -0.092000
      5 C8          -0.0960     1.8800     0.0670 ca         1 5VD       0.228100
      6 C4           4.3210    -1.9020    -0.1270 ca         1 5VD       0.188100
      7 C5          -0.6300    -0.8410    -0.2740 ca         1 5VD      -0.092000
      8 C6          -1.7080     0.0620    -0.2010 ca         1 5VD       0.013700
      9 C7          -1.4390     1.4480    -0.0840 ca         1 5VD      -0.147300
     10 C10         -3.9300     1.8960    -0.6120 c6         1 5VD      -0.111400
     11 CG           2.4090     1.4230     0.2000 c          1 5VD       0.633300
     12 CD1          0.9810     0.9600     0.0390 ca         1 5VD      -0.253600
     13 CE1          0.7080    -0.4150    -0.1530 ca         1 5VD      -0.073600
     14 CZ           1.8150    -1.4440    -0.2200 c          1 5VD       0.609300
     15 CE2          3.2470    -0.9760    -0.0690 ca         1 5VD      -0.225600
     16 CD2          3.5310     0.4080     0.1340 ca         1 5VD      -0.221600
     17 C9          -2.5960     2.4720    -0.0920 c6         1 5VD       0.240600
     18 C11         -4.2770     0.5430     0.0440 c6         1 5VD       0.199000
     19 C12         -3.1540    -0.4790    -0.3060 c6         1 5VD      -0.078400
     20 O16          2.6590     2.6130     0.3850 o          1 5VD      -0.628100
     21 O17          1.5630    -2.6340    -0.3950 o          1 5VD      -0.559100
     22 O18          5.2020     2.1310     0.4710 oh         1 5VD      -0.534100
     23 O19          4.1010    -3.2330    -0.3190 oh         1 5VD      -0.536100
     24 C13         -4.4800     0.7010     1.5820 c3         1 5VD      -0.128100
     25 C14         -3.3640    -1.8160     0.4390 c          1 5VD       0.604100
     26 O20         -2.7770    -2.0950     1.4780 o          1 5VD      -0.485000
     27 O21         -4.1050    -2.7290    -0.2710 os         1 5VD      -0.425100
     28 C22         -4.3090    -4.0330     0.3030 c3         1 5VD       0.150900
     29 O1          -2.2580     3.5970    -0.9000 oh         1 5VD      -0.655000
     30 O2           0.1630     3.2100     0.2370 oh         1 5VD      -0.563100
     31 H1           6.9540     0.2220     0.3230 ha         1 5VD       0.141000
     32 H2          -6.2000     0.7540    -0.2380 ho         1 5VD       0.451000
     33 H3           6.4580    -2.1880    -0.0320 ha         1 5VD       0.141000
     34 H4          -0.8350    -1.8990    -0.4200 ha         1 5VD       0.147000
     35 H5          -4.7330     2.6250    -0.4370 hc         1 5VD       0.067700
     36 H6          -3.8680     1.7640    -1.7020 hc         1 5VD       0.067700
     37 H7          -2.7430     2.8050     0.9470 h1         1 5VD       0.047700
     38 H8          -3.3450    -0.7190    -1.3600 hc         1 5VD       0.108700
     39 H9           4.3400     2.6240     0.4880 ho         1 5VD       0.516000
     40 H10          3.1190    -3.3470    -0.3950 ho         1 5VD       0.517000
     41 H11         -5.1570     1.5330     1.8130 hc         1 5VD       0.052367
     42 H12         -4.9160    -0.2000     2.0290 hc         1 5VD       0.052367
     43 H13         -3.5330     0.8930     2.1000 hc         1 5VD       0.052367
     44 H14         -4.8250    -3.9590     1.2700 h1         1 5VD       0.050033
     45 H15         -4.9240    -4.6510    -0.3630 h1         1 5VD       0.050033
     46 H16         -3.3520    -4.5480     0.4580 h1         1 5VD       0.050033
     47 H17         -1.3220     3.7860    -0.6470 ho         1 5VD       0.463000
     48 H18          1.1500     3.2810     0.3510 ho         1 5VD       0.527000
@<TRIPOS>BOND
     1     1     2 ar  
     2     1    16 ar  
     3     1    22 1   
     4     2     4 ar  
     5     2    31 1   
     6     3    18 1   
     7     3    32 1   
     8     4     6 ar  
     9     4    33 1   
    10     5     9 ar  
    11     5    12 ar  
    12     5    30 1   
    13     6    15 ar  
    14     6    23 1   
    15     7     8 ar  
    16     7    13 ar  
    17     7    34 1   
    18     8     9 ar  
    19     8    19 1   
    20     9    17 1   
    21    10    17 1   
    22    10    18 1   
    23    10    35 1   
    24    10    36 1   
    25    11    12 1   
    26    11    16 1   
    27    11    20 2   
    28    12    13 ar  
    29    13    14 1   
    30    14    15 1   
    31    14    21 2   
    32    15    16 ar  
    33    17    29 1   
    34    17    37 1   
    35    18    19 1   
    36    18    24 1   
    37    19    25 1   
    38    19    38 1   
    39    22    39 1   
    40    23    40 1   
    41    24    41 1   
    42    24    42 1   
    43    24    43 1   
    44    25    26 2   
    45    25    27 1   
    46    27    28 1   
    47    28    44 1   
    48    28    45 1   
    49    28    46 1   
    50    29    47 1   
    51    30    48 1   
@<TRIPOS>SUBSTRUCTURE
     1 5VD         1 TEMP              0 ****  ****    0 ROOT
