@<TRIPOS>MOLECULE
5VD
   48    51     1     0     0
SMALL
abcg2


@<TRIPOS>ATOM
      1 C1           4.7190     0.8500     0.2980 ca         1 5VD       0.193100
      2 C2           5.7600    -0.1010     0.2670 ca         1 5VD      -0.100000
      3 O14         -5.4080     0.0010    -0.1830 oh         1 5VD      -0.653000
      4 C3           5.4960    -1.4300     0.1030 ca         1 5VD      -0.092000
      5 C8          -0.1180     1.8270     0.0290 ca         1 5VD       0.228100
      6 C4           4.1710    -1.8930    -0.0410 ca         1 5VD       0.188100
      7 C5          -0.6410    -0.8830    -0.2300 ca         1 5VD      -0.092000
      8 C6          -1.7040     0.0280    -0.2170 ca         1 5VD       0.013700
      9 C7          -1.4470     1.3910    -0.1430 ca         1 5VD      -0.147300
     10 C10         -3.8900     1.8370    -0.5550 c6         1 5VD      -0.111400
     11 CG           2.3150     1.3770     0.1870 c          1 5VD       0.633300
     12 CD1          0.9460     0.9130     0.0320 ca         1 5VD      -0.253600
     13 CE1          0.6610    -0.4530    -0.1220 ca         1 5VD      -0.073600
     14 CZ           1.7560    -1.4430    -0.1570 c          1 5VD       0.609300
     15 CE2          3.1260    -0.9710    -0.0120 ca         1 5VD      -0.225600
     16 CD2          3.4020     0.4130     0.1580 ca         1 5VD      -0.221600
     17 C9          -2.5390     2.4450    -0.2170 c6         1 5VD       0.240600
     18 C11         -4.1520     0.5310     0.1840 c6         1 5VD       0.199000
     19 C12         -3.1180    -0.4840    -0.3510 c6         1 5VD      -0.078400
     20 O16          2.5530     2.5920     0.3370 o          1 5VD      -0.628100
     21 O17          1.5050    -2.6390    -0.3050 o          1 5VD      -0.559100
     22 O18          5.0690     2.1200     0.4620 oh         1 5VD      -0.534100
     23 O19          3.9950    -3.1990    -0.1970 oh         1 5VD      -0.536100
     24 C13         -4.0870     0.7380     1.6960 c3         1 5VD      -0.128100
     25 C14         -3.3110    -1.8310     0.3200 c          1 5VD       0.604100
     26 O20         -2.9200    -2.1000     1.4270 o          1 5VD      -0.485000
     27 O21         -3.9750    -2.6740    -0.4510 os         1 5VD      -0.425100
     28 C22         -4.2760    -3.9620     0.0910 c3         1 5VD       0.150900
     29 O1          -2.2710     3.4060    -1.2150 oh         1 5VD      -0.655000
     30 O2           0.0770     3.1300     0.1970 oh         1 5VD      -0.563100
     31 H1           6.7820     0.2400     0.3780 ha         1 5VD       0.141000
     32 H2          -6.0960     0.5670     0.1840 ho         1 5VD       0.451000
     33 H3           6.3060    -2.1470     0.0810 ha         1 5VD       0.141000
     34 H4          -0.8270    -1.9420    -0.3400 ha         1 5VD       0.147000
     35 H5          -4.6740     2.5620    -0.3160 hc         1 5VD       0.067700
     36 H6          -3.9380     1.6490    -1.6320 hc         1 5VD       0.067700
     37 H7          -2.6020     2.9280     0.7670 h1         1 5VD       0.047700
     38 H8          -3.3250    -0.6060    -1.4210 hc         1 5VD       0.108700
     39 H9           4.2540     2.6660     0.4680 ho         1 5VD       0.516000
     40 H10          3.0290    -3.3620    -0.2850 ho         1 5VD       0.517000
     41 H11         -4.7290     1.5770     1.9740 hc         1 5VD       0.052367
     42 H12         -4.4350    -0.1400     2.2380 hc         1 5VD       0.052367
     43 H13         -3.0830     0.9680     2.0520 hc         1 5VD       0.052367
     44 H14         -4.9260    -3.8820     0.9610 h1         1 5VD       0.050033
     45 H15         -4.7910    -4.5020    -0.6980 h1         1 5VD       0.050033
     46 H16         -3.3700    -4.5000     0.3670 h1         1 5VD       0.050033
     47 H17         -1.5420     3.9570    -0.9120 ho         1 5VD       0.463000
     48 H18          1.0460     3.2900     0.2920 ho         1 5VD       0.527000
@<TRIPOS>BOND
     1     1     2 ar  
     2     1    16 ar  
     3     1    22 1   
     4     2     4 ar  
     5     2    31 1   
     6     3    18 1   
     7     3    32 1   
     8     4     6 ar  
     9     4    33 1   
    10     5     9 ar  
    11     5    12 ar  
    12     5    30 1   
    13     6    15 ar  
    14     6    23 1   
    15     7     8 ar  
    16     7    13 ar  
    17     7    34 1   
    18     8     9 ar  
    19     8    19 1   
    20     9    17 1   
    21    10    17 1   
    22    10    18 1   
    23    10    35 1   
    24    10    36 1   
    25    11    12 1   
    26    11    16 1   
    27    11    20 2   
    28    12    13 ar  
    29    13    14 1   
    30    14    15 1   
    31    14    21 2   
    32    15    16 ar  
    33    17    29 1   
    34    17    37 1   
    35    18    19 1   
    36    18    24 1   
    37    19    25 1   
    38    19    38 1   
    39    22    39 1   
    40    23    40 1   
    41    24    41 1   
    42    24    42 1   
    43    24    43 1   
    44    25    26 2   
    45    25    27 1   
    46    27    28 1   
    47    28    44 1   
    48    28    45 1   
    49    28    46 1   
    50    29    47 1   
    51    30    48 1   
@<TRIPOS>SUBSTRUCTURE
     1 5VD         1 TEMP              0 ****  ****    0 ROOT
