@<TRIPOS>MOLECULE
5VI
   66    65     1     0     0
SMALL
abcg2


@<TRIPOS>ATOM
      1 C13        103.6540   117.2030   132.6810 c3         1 5VI      -0.083100
      2 C14        104.6210   116.1410   132.1700 c3         1 5VI      -0.062400
      3 C15        105.9910   116.7490   131.8200 c3         1 5VI      -0.193400
      4 C16        106.9850   115.6900   131.4180 c          1 5VI       0.615100
      5 O17        107.8280   115.2590   132.1760 o          1 5VI      -0.516000
      6 O18        106.9260   115.1340   130.1920 os         1 5VI      -0.472100
      7 C19        106.1260   115.6450   129.1100 c3         1 5VI       0.156600
      8 C20        105.0910   114.6290   128.6690 c3         1 5VI       0.118300
      9 C21        104.4050   115.1410   127.4120 c3         1 5VI       0.197600
     10 O22        103.1580   114.5060   127.1400 os         1 5VI      -0.588400
     11 P23        101.7960   115.0430   127.8610 p5         1 5VI       1.420800
     12 O24        100.6840   114.3230   127.1710 o          1 5VI      -0.842000
     13 O25        101.9170   114.9850   129.3510 o          1 5VI      -0.842000
     14 O26        101.8340   116.5940   127.3790 os         1 5VI      -0.641400
     15 C27        101.5370   117.6870   128.2650 c3         1 5VI       0.247600
     16 C28        102.3460   118.9020   127.8470 c3         1 5VI       0.017500
     17 C29        103.8660   118.6720   128.1060 c          1 5VI       0.695000
     18 O30        104.1840   118.4200   129.2980 o          1 5VI      -0.758500
     19 O31        104.6520   118.7630   127.1330 o          1 5VI      -0.758500
     20 N32        101.9840   119.2920   126.4830 n8         1 5VI      -0.997200
     21 O33        105.7880   113.3900   128.3900 os         1 5VI      -0.462100
     22 C34        105.2500   112.2250   128.7890 c          1 5VI       0.593100
     23 O35        104.1670   112.1250   129.3190 o          1 5VI      -0.461000
     24 C36        106.1570   111.0660   128.4590 c3         1 5VI      -0.140400
     25 C37        106.1830   109.9580   129.5170 c3         1 5VI      -0.061400
     26 C38        106.9750   110.2980   130.7830 c3         1 5VI      -0.065400
     27 C39        106.3440   111.3610   131.6810 c3         1 5VI      -0.083400
     28 C40        107.1280   111.6150   132.9650 c3         1 5VI      -0.065400
     29 C41        106.4250   112.6050   133.8900 c3         1 5VI      -0.071400
     30 C42        107.2690   113.0080   135.1050 c3         1 5VI      -0.042200
     31 C43        106.5580   113.9860   135.9890 c2         1 5VI      -0.208200
     32 C44        106.9350   115.2430   136.1980 c2         1 5VI      -0.324000
     33 H1         102.6900   116.7580   132.9360 hc         1 5VI       0.033033
     34 H2         104.0470   117.6920   133.5760 hc         1 5VI       0.033033
     35 H3         103.4870   117.9680   131.9200 hc         1 5VI       0.033033
     36 H4         104.1960   115.6510   131.2930 hc         1 5VI       0.055700
     37 H5         104.7590   115.3660   132.9270 hc         1 5VI       0.055700
     38 H6         106.4070   117.2360   132.7010 hc         1 5VI       0.078200
     39 H7         105.8660   117.5030   131.0430 hc         1 5VI       0.078200
     40 H8         106.8260   115.8480   128.2980 h1         1 5VI       0.091200
     41 H9         105.6180   116.5710   129.3710 h1         1 5VI       0.091200
     42 H10        104.3580   114.4490   129.4500 h1         1 5VI       0.118700
     43 H11        105.0510   114.9470   126.5540 h1         1 5VI       0.058200
     44 H12        104.2660   116.2190   127.4900 h1         1 5VI       0.058200
     45 H14        100.4690   117.9090   128.1940 h1         1 5VI       0.025200
     46 H15        101.7810   117.4070   129.2860 h1         1 5VI       0.025200
     47 H16        102.0470   119.7100   128.5240 h1         1 5VI       0.024700
     48 H18        102.6250   120.0160   126.1750 hn         1 5VI       0.384000
     49 H19        102.1740   118.5030   125.8720 hn         1 5VI       0.384000
     50 H21        105.7800   110.6580   127.5150 hc         1 5VI       0.059200
     51 H22        107.1620   111.4400   128.2630 hc         1 5VI       0.059200
     52 H23        105.1560   109.6900   129.7820 hc         1 5VI       0.037700
     53 H24        106.6270   109.0750   129.0530 hc         1 5VI       0.037700
     54 H25        107.0960   109.3800   131.3670 hc         1 5VI       0.021700
     55 H26        107.9850   110.6160   130.4990 hc         1 5VI       0.021700
     56 H27        106.2560   112.3090   131.1440 hc         1 5VI       0.061200
     57 H28        105.3220   111.0570   131.9310 hc         1 5VI       0.061200
     58 H29        107.2890   110.6690   133.4950 hc         1 5VI       0.024700
     59 H30        108.1210   112.0010   132.7110 hc         1 5VI       0.024700
     60 H31        106.1760   113.5060   133.3270 hc         1 5VI       0.051200
     61 H32        105.4760   112.1760   134.2310 hc         1 5VI       0.051200
     62 H33        107.5150   112.1070   135.6790 hc         1 5VI       0.036200
     63 H34        108.2140   113.4410   134.7640 hc         1 5VI       0.036200
     64 H35        105.6490   113.6220   136.4630 ha         1 5VI       0.153000
     65 H36        106.3650   115.9120   136.8330 ha         1 5VI       0.158500
     66 H37        107.8310   115.6480   135.7370 ha         1 5VI       0.158500
@<TRIPOS>BOND
     1     1     2 1   
     2     1    33 1   
     3     1    34 1   
     4     1    35 1   
     5     2     3 1   
     6     2    36 1   
     7     2    37 1   
     8     3     4 1   
     9     3    38 1   
    10     3    39 1   
    11     4     5 2   
    12     4     6 1   
    13     6     7 1   
    14     7     8 1   
    15     7    40 1   
    16     7    41 1   
    17     8     9 1   
    18     8    21 1   
    19     8    42 1   
    20     9    10 1   
    21     9    43 1   
    22     9    44 1   
    23    10    11 1   
    24    11    12 1   
    25    11    13 1   
    26    11    14 1   
    27    14    15 1   
    28    15    16 1   
    29    15    45 1   
    30    15    46 1   
    31    16    17 1   
    32    16    20 1   
    33    16    47 1   
    34    17    18 1   
    35    17    19 1   
    36    20    48 1   
    37    20    49 1   
    38    21    22 1   
    39    22    23 2   
    40    22    24 1   
    41    24    25 1   
    42    24    50 1   
    43    24    51 1   
    44    25    26 1   
    45    25    52 1   
    46    25    53 1   
    47    26    27 1   
    48    26    54 1   
    49    26    55 1   
    50    27    28 1   
    51    27    56 1   
    52    27    57 1   
    53    28    29 1   
    54    28    58 1   
    55    28    59 1   
    56    29    30 1   
    57    29    60 1   
    58    29    61 1   
    59    30    31 1   
    60    30    62 1   
    61    30    63 1   
    62    31    32 2   
    63    31    64 1   
    64    32    65 1   
    65    32    66 1   
@<TRIPOS>SUBSTRUCTURE
     1 5VI         1 TEMP              0 ****  ****    0 ROOT
