@<TRIPOS>MOLECULE
5VI
   66    65     1     0     0
SMALL
No Charge or Current Charge


@<TRIPOS>ATOM
      1 C13        106.0680   119.3880   133.0160 c3         1 5VI      -0.083100
      2 C14        105.9330   117.8540   133.0500 c3         1 5VI      -0.062400
      3 C15        107.1230   117.1270   132.3750 c3         1 5VI      -0.193400
      4 C16        106.9480   115.5920   132.4250 c          1 5VI       0.615100
      5 O17        107.3060   114.9530   133.4010 o          1 5VI      -0.516000
      6 O18        106.1760   115.0080   131.4410 os         1 5VI      -0.472100
      7 C19        105.8130   115.7140   130.2300 c3         1 5VI       0.156600
      8 C20        104.9920   114.7630   129.3250 c3         1 5VI       0.118300
      9 C21        104.4610   115.5190   128.0670 c3         1 5VI       0.197600
     10 O22        103.4010   114.7930   127.4170 os         1 5VI      -0.588400
     11 P23        101.8750   114.8450   127.9440 p5         1 5VI       1.420800
     12 O24        101.1250   113.6300   127.5090 o          1 5VI      -0.842000
     13 O25        101.7790   115.0540   129.4180 o          1 5VI      -0.842000
     14 O26        101.3550   116.1290   127.1200 os         1 5VI      -0.641400
     15 C27        101.4690   117.4520   127.6750 c3         1 5VI       0.247600
     16 C28        101.7740   118.4720   126.5370 c3         1 5VI       0.017500
     17 C29        103.2830   118.3230   126.0890 c          1 5VI       0.695000
     18 O30        104.1510   118.7140   126.8580 o          1 5VI      -0.758500
     19 O31        103.5290   117.9740   124.9410 o          1 5VI      -0.758500
     20 N32        100.7260   118.4380   125.4370 n8         1 5VI      -0.997200
     21 O33        105.8900   113.7070   128.8930 os         1 5VI      -0.462100
     22 C34        105.3830   112.4760   128.5590 c          1 5VI       0.593100
     23 O35        104.2090   112.1510   128.6550 o          1 5VI      -0.461000
     24 C36        106.4820   111.5330   128.0620 c3         1 5VI      -0.140400
     25 C37        106.7610   110.3330   129.0040 c3         1 5VI      -0.061400
     26 C38        107.3190   110.6780   130.4100 c3         1 5VI      -0.065400
     27 C39        106.2650   111.1670   131.4330 c3         1 5VI      -0.083400
     28 C40        106.8310   111.3110   132.8630 c3         1 5VI      -0.065400
     29 C41        105.7720   111.7870   133.8820 c3         1 5VI      -0.071400
     30 C42        106.3310   111.9430   135.3120 c3         1 5VI      -0.042200
     31 C43        105.2770   112.4220   136.2880 c2         1 5VI      -0.208200
     32 C44        105.2740   113.6170   136.8980 c2         1 5VI      -0.324000
     33 H1         105.2090   119.8590   133.5110 hc         1 5VI       0.033033
     34 H2         106.9800   119.7100   133.5330 hc         1 5VI       0.033033
     35 H3         106.1090   119.7520   131.9820 hc         1 5VI       0.033033
     36 H4         104.9930   117.5680   132.5610 hc         1 5VI       0.055700
     37 H5         105.8540   117.5270   134.0950 hc         1 5VI       0.055700
     38 H6         108.0330   117.3840   132.9300 hc         1 5VI       0.078200
     39 H7         107.2130   117.5000   131.3510 hc         1 5VI       0.078200
     40 H8         106.7060   116.0420   129.6790 h1         1 5VI       0.091200
     41 H9         105.2010   116.5970   130.4570 h1         1 5VI       0.091200
     42 H10        104.1600   114.3720   129.9240 h1         1 5VI       0.118700
     43 H11        105.2920   115.6840   127.3690 h1         1 5VI       0.058200
     44 H12        104.1080   116.5080   128.3800 h1         1 5VI       0.058200
     45 H14        100.5230   117.7320   128.1570 h1         1 5VI       0.025200
     46 H15        102.2510   117.5130   128.4430 h1         1 5VI       0.025200
     47 H16        101.7080   119.4740   126.9820 h1         1 5VI       0.024700
     48 H18        101.1000   118.9430   124.6250 hn         1 5VI       0.384000
     49 H19        100.6800   117.4680   125.1020 hn         1 5VI       0.384000
     50 H21        106.1640   111.1320   127.0930 hc         1 5VI       0.059200
     51 H22        107.4130   112.0960   127.9180 hc         1 5VI       0.059200
     52 H23        105.8500   109.7310   129.1110 hc         1 5VI       0.037700
     53 H24        107.4920   109.6850   128.5040 hc         1 5VI       0.037700
     54 H25        107.7890   109.7720   130.8130 hc         1 5VI       0.021700
     55 H26        108.1170   111.4250   130.3150 hc         1 5VI       0.021700
     56 H27        105.8650   112.1380   131.1250 hc         1 5VI       0.061200
     57 H28        105.4240   110.4630   131.4510 hc         1 5VI       0.061200
     58 H29        107.2370   110.3460   133.1900 hc         1 5VI       0.024700
     59 H30        107.6660   112.0230   132.8480 hc         1 5VI       0.024700
     60 H31        105.3620   112.7500   133.5530 hc         1 5VI       0.051200
     61 H32        104.9390   111.0740   133.8980 hc         1 5VI       0.051200
     62 H33        106.7370   110.9810   135.6480 hc         1 5VI       0.036200
     63 H34        107.1740   112.6450   135.2890 hc         1 5VI       0.036200
     64 H35        104.4800   111.7000   136.4840 ha         1 5VI       0.153000
     65 H36        104.4840   113.9000   137.5960 ha         1 5VI       0.158500
     66 H37        106.0580   114.3550   136.7200 ha         1 5VI       0.158500
@<TRIPOS>BOND
     1     1     2 1   
     2     1    33 1   
     3     1    34 1   
     4     1    35 1   
     5     2     3 1   
     6     2    36 1   
     7     2    37 1   
     8     3     4 1   
     9     3    38 1   
    10     3    39 1   
    11     4     5 2   
    12     4     6 1   
    13     6     7 1   
    14     7     8 1   
    15     7    40 1   
    16     7    41 1   
    17     8     9 1   
    18     8    21 1   
    19     8    42 1   
    20     9    10 1   
    21     9    43 1   
    22     9    44 1   
    23    10    11 1   
    24    11    12 1   
    25    11    13 1   
    26    11    14 1   
    27    14    15 1   
    28    15    16 1   
    29    15    45 1   
    30    15    46 1   
    31    16    17 1   
    32    16    20 1   
    33    16    47 1   
    34    17    18 1   
    35    17    19 1   
    36    20    48 1   
    37    20    49 1   
    38    21    22 1   
    39    22    23 2   
    40    22    24 1   
    41    24    25 1   
    42    24    50 1   
    43    24    51 1   
    44    25    26 1   
    45    25    52 1   
    46    25    53 1   
    47    26    27 1   
    48    26    54 1   
    49    26    55 1   
    50    27    28 1   
    51    27    56 1   
    52    27    57 1   
    53    28    29 1   
    54    28    58 1   
    55    28    59 1   
    56    29    30 1   
    57    29    60 1   
    58    29    61 1   
    59    30    31 1   
    60    30    62 1   
    61    30    63 1   
    62    31    32 2   
    63    31    64 1   
    64    32    65 1   
    65    32    66 1   
@<TRIPOS>SUBSTRUCTURE
     1 5VI         1 TEMP              0 ****  ****    0 ROOT
