@<TRIPOS>MOLECULE
5VJ
   25    27     1     0     0
SMALL
No Charge or Current Charge


@<TRIPOS>ATOM
      1 OAA          0.7540    -2.0360    -1.3920 o          1 5VJ      -0.533000
      2 SAP          0.9200    -1.6050    -0.0020 sy         1 5VJ       1.169600
      3 OAB          1.7010    -2.3770     0.9670 o          1 5VJ      -0.533000
      4 CAO          1.3590     0.1130     0.0580 ca         1 5VJ      -0.270500
      5 CAJ          2.7260     0.4540     0.0770 ca         1 5VJ      -0.010000
      6 CAF          3.1130     1.7990     0.0650 ca         1 5VJ      -0.125000
      7 CAE          2.1350     2.7990     0.0320 ca         1 5VJ      -0.056000
      8 CAI          0.7710     2.4600     0.0160 ca         1 5VJ      -0.118000
      9 CAN          0.3380     1.1050     0.0340 ca         1 5VJ       0.077000
     10 CAM         -1.0610     0.7560     0.0430 ca         1 5VJ      -0.091000
     11 CAH         -2.0680     1.7320    -0.1990 ca         1 5VJ      -0.054000
     12 CAD         -3.4330     1.4000    -0.1820 ca         1 5VJ      -0.133000
     13 CAC         -3.8410     0.0890     0.0820 ca         1 5VJ      -0.065000
     14 CAG         -2.8750    -0.8940     0.3260 ca         1 5VJ      -0.145000
     15 CAL         -1.5060    -0.5770     0.3040 ca         1 5VJ       0.306000
     16 NAK         -0.6200    -1.5940     0.5890 nu         1 5VJ      -0.892100
     17 H1           3.4900    -0.3210     0.0900 ha         1 5VJ       0.135000
     18 H2           4.1670     2.0650     0.0780 ha         1 5VJ       0.122000
     19 H3           2.4320     3.8460     0.0280 ha         1 5VJ       0.117000
     20 H4           0.0730     3.2880     0.0280 ha         1 5VJ       0.117000
     21 H5          -1.8300     2.7620    -0.4390 ha         1 5VJ       0.119000
     22 H6          -4.1790     2.1680    -0.3790 ha         1 5VJ       0.121000
     23 H7          -4.8990    -0.1640     0.0990 ha         1 5VJ       0.119000
     24 H8          -3.1950    -1.9100     0.5400 ha         1 5VJ       0.121000
     25 H9          -0.9630    -2.5360     0.4680 hn         1 5VJ       0.502000
@<TRIPOS>BOND
     1     1     2 2   
     2     2     3 2   
     3     2     4 1   
     4     2    16 1   
     5     4     5 ar  
     6     4     9 ar  
     7     5     6 ar  
     8     5    17 1   
     9     6     7 ar  
    10     6    18 1   
    11     7     8 ar  
    12     7    19 1   
    13     8     9 ar  
    14     8    20 1   
    15     9    10 1   
    16    10    11 ar  
    17    10    15 ar  
    18    11    12 ar  
    19    11    21 1   
    20    12    13 ar  
    21    12    22 1   
    22    13    14 ar  
    23    13    23 1   
    24    14    15 ar  
    25    14    24 1   
    26    15    16 1   
    27    16    25 1   
@<TRIPOS>SUBSTRUCTURE
     1 5VJ         1 TEMP              0 ****  ****    0 ROOT
