@<TRIPOS>MOLECULE
5VJ
   25    27     1     0     0
SMALL
abcg2


@<TRIPOS>ATOM
      1 OAA          0.5510    -1.7870    -1.5890 o          1 5VJ      -0.533000
      2 SAP          0.8520    -1.5460    -0.1880 sy         1 5VJ       1.169600
      3 OAB          1.7750    -2.4430     0.4820 o          1 5VJ      -0.533000
      4 CAO          1.3370     0.1310     0.0030 ca         1 5VJ      -0.270500
      5 CAJ          2.6900     0.4290     0.0710 ca         1 5VJ      -0.010000
      6 CAF          3.0820     1.7540     0.1410 ca         1 5VJ      -0.125000
      7 CAE          2.1160     2.7540     0.1520 ca         1 5VJ      -0.056000
      8 CAI          0.7700     2.4390     0.0970 ca         1 5VJ      -0.118000
      9 CAN          0.3400     1.1130     0.0100 ca         1 5VJ       0.077000
     10 CAM         -1.0840     0.7530    -0.0140 ca         1 5VJ      -0.091000
     11 CAH         -2.0710     1.6750    -0.3720 ca         1 5VJ      -0.054000
     12 CAD         -3.4140     1.3510    -0.3160 ca         1 5VJ      -0.133000
     13 CAC         -3.8000     0.0810     0.0980 ca         1 5VJ      -0.065000
     14 CAG         -2.8440    -0.8630     0.4260 ca         1 5VJ      -0.145000
     15 CAL         -1.4940    -0.5340     0.3640 ca         1 5VJ       0.306000
     16 NAK         -0.5270    -1.4780     0.7300 nu         1 5VJ      -0.892100
     17 H1           3.4300    -0.3600     0.0700 ha         1 5VJ       0.135000
     18 H2           4.1320     2.0030     0.1970 ha         1 5VJ       0.122000
     19 H3           2.4150     3.7920     0.2200 ha         1 5VJ       0.117000
     20 H4           0.0450     3.2400     0.1450 ha         1 5VJ       0.117000
     21 H5          -1.7850     2.6620    -0.7100 ha         1 5VJ       0.119000
     22 H6          -4.1580     2.0840    -0.5970 ha         1 5VJ       0.121000
     23 H7          -4.8480    -0.1820     0.1490 ha         1 5VJ       0.119000
     24 H8          -3.1390    -1.8590     0.7280 ha         1 5VJ       0.121000
     25 H9          -0.8640    -2.3860     1.0360 hn         1 5VJ       0.502000
@<TRIPOS>BOND
     1     1     2 2   
     2     2     3 2   
     3     2     4 1   
     4     2    16 1   
     5     4     5 ar  
     6     4     9 ar  
     7     5     6 ar  
     8     5    17 1   
     9     6     7 ar  
    10     6    18 1   
    11     7     8 ar  
    12     7    19 1   
    13     8     9 ar  
    14     8    20 1   
    15     9    10 1   
    16    10    11 ar  
    17    10    15 ar  
    18    11    12 ar  
    19    11    21 1   
    20    12    13 ar  
    21    12    22 1   
    22    13    14 ar  
    23    13    23 1   
    24    14    15 ar  
    25    14    24 1   
    26    15    16 1   
    27    16    25 1   
@<TRIPOS>SUBSTRUCTURE
     1 5VJ         1 TEMP              0 ****  ****    0 ROOT
