@<TRIPOS>MOLECULE
5VK
   39    40     1     0     0
SMALL
bcc


@<TRIPOS>ATOM
      1 CAA          7.3990     1.4270    -1.1260 c3         1 5VK      -0.097100
      2 CAL          6.7650     0.4040    -0.2150 c3         1 5VK       0.144400
      3 OAO          5.3390     0.5310    -0.3350 os         1 5VK      -0.430900
      4 CAP          4.5770    -0.2860     0.3800 c          1 5VK       0.640100
      5 OAB          5.0180    -1.1400     1.1100 o          1 5VK      -0.541000
      6 CAM          3.1130    -0.0010     0.1700 c3         1 5VK      -0.136400
      7 CAN          2.2030    -0.9970     0.8820 c3         1 5VK      -0.024100
      8 CAQ          0.7540    -0.6460     0.6840 ca         1 5VK      -0.040300
      9 CAK          0.0960    -1.0140    -0.4850 ca         1 5VK      -0.227000
     10 CAS         -1.2360    -0.6740    -0.6980 ca         1 5VK       0.164100
     11 OAD         -1.8830    -0.9920    -1.8350 oh         1 5VK      -0.481100
     12 CAI          0.0580     0.0820     1.6430 ca         1 5VK      -0.165000
     13 CAJ         -1.2720     0.4140     1.4320 ca         1 5VK      -0.081000
     14 CAU         -1.9460     0.0410     0.2740 cp         1 5VK      -0.056000
     15 CAT         -3.3590     0.4270     0.0690 cp         1 5VK      -0.059000
     16 CAH         -3.7190     1.7700    -0.0040 ca         1 5VK      -0.082000
     17 CAF         -5.0410     2.1630    -0.1650 ca         1 5VK      -0.170000
     18 CAE         -6.0270     1.1930    -0.2560 ca         1 5VK      -0.083000
     19 CAG         -5.6960    -0.1520    -0.1770 ca         1 5VK      -0.230000
     20 CAR         -4.3690    -0.5390    -0.0100 ca         1 5VK       0.163100
     21 OAC         -4.0080    -1.8310     0.1060 oh         1 5VK      -0.483100
     22 H1           7.1310     1.2570    -2.1690 hc         1 5VK       0.046367
     23 H2           7.1110     2.4420    -0.8530 hc         1 5VK       0.046367
     24 H3           8.4830     1.3530    -1.0440 hc         1 5VK       0.046367
     25 H4           7.0700    -0.6070    -0.4940 h1         1 5VK       0.048200
     26 H5           7.0620     0.5700     0.8220 h1         1 5VK       0.048200
     27 H6           2.9120     1.0160     0.5200 hc         1 5VK       0.075200
     28 H7           2.9080     0.0100    -0.9040 hc         1 5VK       0.075200
     29 H8           2.3960    -2.0030     0.5050 hc         1 5VK       0.062700
     30 H9           2.4330    -1.0100     1.9480 hc         1 5VK       0.062700
     31 H10          0.6310    -1.5740    -1.2470 ha         1 5VK       0.129000
     32 H11         -1.2990    -1.4820    -2.4240 ho         1 5VK       0.421000
     33 H12          0.5500     0.3820     2.5590 ha         1 5VK       0.134000
     34 H13         -1.8110     0.9690     2.1900 ha         1 5VK       0.135000
     35 H14         -2.9390     2.5190     0.0600 ha         1 5VK       0.133000
     36 H15         -5.2920     3.2130    -0.2240 ha         1 5VK       0.134000
     37 H16         -7.0640     1.4760    -0.3850 ha         1 5VK       0.129000
     38 H17         -6.4740    -0.9050    -0.2360 ha         1 5VK       0.129000
     39 H18         -4.7840    -2.4000     0.0490 ho         1 5VK       0.421000
@<TRIPOS>BOND
     1     1     2 1   
     2     1    22 1   
     3     1    23 1   
     4     1    24 1   
     5     2     3 1   
     6     2    25 1   
     7     2    26 1   
     8     3     4 1   
     9     4     5 2   
    10     4     6 1   
    11     6     7 1   
    12     6    27 1   
    13     6    28 1   
    14     7     8 1   
    15     7    29 1   
    16     7    30 1   
    17     8     9 ar  
    18     8    12 ar  
    19     9    10 ar  
    20     9    31 1   
    21    10    11 1   
    22    10    14 ar  
    23    11    32 1   
    24    12    13 ar  
    25    12    33 1   
    26    13    14 ar  
    27    13    34 1   
    28    14    15 1   
    29    15    16 ar  
    30    15    20 ar  
    31    16    17 ar  
    32    16    35 1   
    33    17    18 ar  
    34    17    36 1   
    35    18    19 ar  
    36    18    37 1   
    37    19    20 ar  
    38    19    38 1   
    39    20    21 1   
    40    21    39 1   
@<TRIPOS>SUBSTRUCTURE
     1 5VK         1 TEMP              0 ****  ****    0 ROOT
