@<TRIPOS>MOLECULE
5VK
   39    40     1     0     0
SMALL
No Charge or Current Charge


@<TRIPOS>ATOM
      1 CAA          7.1730     0.0060    -1.6740 c3         1 5VK      -0.097100
      2 CAL          6.7040     0.1330    -0.2160 c3         1 5VK       0.167600
      3 OAO          5.2910     0.3940    -0.2400 os         1 5VK      -0.454100
      4 CAP          4.6450     0.5460     0.9590 c          1 5VK       0.591100
      5 OAB          5.1840     0.4520     2.0540 o          1 5VK      -0.492000
      6 CAM          3.1480     0.7910     0.7700 c3         1 5VK      -0.136400
      7 CAN          2.3550    -0.5330     0.8250 c3         1 5VK      -0.024100
      8 CAQ          0.8620    -0.3110     0.6280 ca         1 5VK      -0.040300
      9 CAK          0.3060    -0.3210    -0.6650 ca         1 5VK      -0.209000
     10 CAS         -1.0710    -0.1100    -0.8530 ca         1 5VK       0.164100
     11 OAD         -1.5590    -0.0960    -2.1290 oh         1 5VK      -0.520100
     12 CAI          0.0270    -0.0780     1.7350 ca         1 5VK      -0.147000
     13 CAJ         -1.3490     0.1340     1.5530 ca         1 5VK      -0.063000
     14 CAU         -1.9250     0.1120     0.2610 cp         1 5VK      -0.056000
     15 CAT         -3.3920     0.3460     0.1030 cp         1 5VK      -0.059000
     16 CAH         -3.9350     1.6150     0.4190 ca         1 5VK      -0.064000
     17 CAF         -5.3110     1.8660     0.2840 ca         1 5VK      -0.152000
     18 CAE         -6.1700     0.8500    -0.1620 ca         1 5VK      -0.065000
     19 CAG         -5.6530    -0.4190    -0.4680 ca         1 5VK      -0.212000
     20 CAR         -4.2770    -0.6760    -0.3370 ca         1 5VK       0.163100
     21 OAC         -3.8210    -1.9340    -0.6130 oh         1 5VK      -0.522100
     22 H1           6.6530    -0.8180    -2.1770 hc         1 5VK       0.046367
     23 H2           6.9770     0.9340    -2.2250 hc         1 5VK       0.046367
     24 H3           8.2500    -0.1940    -1.7100 hc         1 5VK       0.046367
     25 H4           6.9230    -0.7990     0.3210 h1         1 5VK       0.048200
     26 H5           7.2470     0.9540     0.2730 h1         1 5VK       0.048200
     27 H6           2.7870     1.4570     1.5620 hc         1 5VK       0.075200
     28 H7           2.9780     1.2360    -0.2170 hc         1 5VK       0.075200
     29 H8           2.7390    -1.2170     0.0570 hc         1 5VK       0.062700
     30 H9           2.5390    -1.0250     1.7880 hc         1 5VK       0.062700
     31 H10          0.9530    -0.4870    -1.5230 ha         1 5VK       0.111000
     32 H11         -0.8170    -0.2780    -2.7420 ho         1 5VK       0.460000
     33 H12          0.4440    -0.0580     2.7390 ha         1 5VK       0.116000
     34 H13         -1.9820     0.3120     2.4190 ha         1 5VK       0.117000
     35 H14         -3.2770     2.4090     0.7640 ha         1 5VK       0.115000
     36 H15         -5.7100     2.8480     0.5270 ha         1 5VK       0.116000
     37 H16         -7.2360     1.0450    -0.2640 ha         1 5VK       0.111000
     38 H17         -6.3300    -1.2020    -0.8030 ha         1 5VK       0.111000
     39 H18         -4.5810    -2.4780    -0.9040 ho         1 5VK       0.460000
@<TRIPOS>BOND
     1     1     2 1   
     2     1    22 1   
     3     1    23 1   
     4     1    24 1   
     5     2     3 1   
     6     2    25 1   
     7     2    26 1   
     8     3     4 1   
     9     4     5 2   
    10     4     6 1   
    11     6     7 1   
    12     6    27 1   
    13     6    28 1   
    14     7     8 1   
    15     7    29 1   
    16     7    30 1   
    17     8     9 ar  
    18     8    12 ar  
    19     9    10 ar  
    20     9    31 1   
    21    10    11 1   
    22    10    14 ar  
    23    11    32 1   
    24    12    13 ar  
    25    12    33 1   
    26    13    14 ar  
    27    13    34 1   
    28    14    15 1   
    29    15    16 ar  
    30    15    20 ar  
    31    16    17 ar  
    32    16    35 1   
    33    17    18 ar  
    34    17    36 1   
    35    18    19 ar  
    36    18    37 1   
    37    19    20 ar  
    38    19    38 1   
    39    20    21 1   
    40    21    39 1   
@<TRIPOS>SUBSTRUCTURE
     1 5VK         1 TEMP              0 ****  ****    0 ROOT
