@<TRIPOS>MOLECULE
5VL
   24    25     1     0     0
SMALL
abcg2


@<TRIPOS>ATOM
      1 C4           3.5680    -0.4260    -0.1340 ca         1 5VL      -0.067000
      2 C5           2.8230    -1.4260    -0.7470 ca         1 5VL      -0.152500
      3 C6           1.4390    -1.3790    -0.6730 ca         1 5VL      -0.058000
      4 C7           0.7810    -0.3540     0.0010 cp         1 5VL      -0.104500
      5 C8          -0.6990    -0.3260     0.0700 cp         1 5VL      -0.104500
      6 C10         -2.7820    -1.3000     0.8440 ca         1 5VL      -0.152500
      7 C13         -1.4290     0.6460    -0.6260 ca         1 5VL       0.155100
      8 C2           1.5470     0.6350     0.6300 ca         1 5VL       0.155100
      9 C3           2.9370     0.5970     0.5560 ca         1 5VL      -0.181000
     10 C9          -1.3960    -1.2920     0.7930 ca         1 5VL      -0.058000
     11 C11         -3.4900    -0.3220     0.1590 ca         1 5VL      -0.067000
     12 C12         -2.8210     0.6460    -0.5740 ca         1 5VL      -0.181000
     13 O14         -0.7350     1.5520    -1.3390 oh         1 5VL      -0.528600
     14 H1           4.6490    -0.4440    -0.1850 ha         1 5VL       0.113000
     15 H2           3.3140    -2.2300    -1.2780 ha         1 5VL       0.117000
     16 H3           0.8470    -2.1490    -1.1530 ha         1 5VL       0.116500
     17 H4          -3.3030    -2.0590     1.4120 ha         1 5VL       0.117000
     18 H5           0.0390     1.5090     1.4200 ho         1 5VL       0.467500
     19 H6           3.5150     1.3700     1.0470 ha         1 5VL       0.121000
     20 H7          -0.8310    -2.0490     1.3230 ha         1 5VL       0.116500
     21 H8          -4.5720    -0.3100     0.1900 ha         1 5VL       0.113000
     22 H9          -3.3820     1.4010    -1.1120 ha         1 5VL       0.121000
     23 H10         -1.3330     2.1780    -1.7630 ho         1 5VL       0.467500
     24 O1           0.9900     1.6430     1.3310 oh         1 5VL      -0.528600
@<TRIPOS>BOND
     1     1     2 ar  
     2     1     9 ar  
     3     1    14 1   
     4     2     3 ar  
     5     2    15 1   
     6     3     4 ar  
     7     3    16 1   
     8     4     5 1   
     9     4     8 ar  
    10     5     7 ar  
    11     5    10 ar  
    12     6    10 ar  
    13     6    11 ar  
    14     6    17 1   
    15     7    12 ar  
    16     7    13 1   
    17     8     9 ar  
    18     8    24 1   
    19     9    19 1   
    20    10    20 1   
    21    11    12 ar  
    22    11    21 1   
    23    12    22 1   
    24    13    23 1   
    25    18    24 1   
@<TRIPOS>SUBSTRUCTURE
     1 5VL         1 TEMP              0 ****  ****    0 ROOT
