@<TRIPOS>MOLECULE
5VL
   24    25     1     0     0
SMALL
No Charge or Current Charge


@<TRIPOS>ATOM
      1 C4           3.6450    -0.5130    -0.0400 ca         1 5VL      -0.067000
      2 C5           2.8640    -1.5760    -0.5160 ca         1 5VL      -0.152500
      3 C6           1.4620    -1.4860    -0.4940 ca         1 5VL      -0.058000
      4 C7           0.8050    -0.3270    -0.0070 cp         1 5VL      -0.104500
      5 C8          -0.7010    -0.3040     0.0510 cp         1 5VL      -0.104500
      6 C10         -2.7800    -1.4810     0.6490 ca         1 5VL      -0.152500
      7 C13         -1.4960     0.7800    -0.4200 ca         1 5VL       0.155100
      8 C2           1.6190     0.7410     0.4660 ca         1 5VL       0.155100
      9 C3           3.0200     0.6430     0.4520 ca         1 5VL      -0.181000
     10 C9          -1.3780    -1.4320     0.5820 ca         1 5VL      -0.058000
     11 C11         -3.5430    -0.4020     0.1820 ca         1 5VL      -0.067000
     12 C12         -2.9000     0.7250    -0.3520 ca         1 5VL      -0.181000
     13 O14         -0.9240     1.8960    -0.9570 oh         1 5VL      -0.528600
     14 H1           4.7310    -0.5840    -0.0530 ha         1 5VL       0.113000
     15 H2           3.3440    -2.4750    -0.8980 ha         1 5VL       0.117000
     16 H3           0.8750    -2.3240    -0.8630 ha         1 5VL       0.116500
     17 H4          -3.2740    -2.3560     1.0650 ha         1 5VL       0.117000
     18 H5           0.1880     1.9600     0.4860 ho         1 5VL       0.467500
     19 H6           3.6240     1.4690     0.8190 ha         1 5VL       0.121000
     20 H7          -0.8050    -2.2780     0.9560 ha         1 5VL       0.116500
     21 H8          -4.6290    -0.4390     0.2330 ha         1 5VL       0.113000
     22 H9          -3.5010     1.5560    -0.7120 ha         1 5VL       0.121000
     23 H10         -1.6290     2.4330    -1.3820 ho         1 5VL       0.467500
     24 O1           1.0600     1.8840     0.9430 oh         1 5VL      -0.528600
@<TRIPOS>BOND
     1     1     2 ar  
     2     1     9 ar  
     3     1    14 1   
     4     2     3 ar  
     5     2    15 1   
     6     3     4 ar  
     7     3    16 1   
     8     4     5 1   
     9     4     8 ar  
    10     5     7 ar  
    11     5    10 ar  
    12     6    10 ar  
    13     6    11 ar  
    14     6    17 1   
    15     7    12 ar  
    16     7    13 1   
    17     8     9 ar  
    18     8    24 1   
    19     9    19 1   
    20    10    20 1   
    21    11    12 ar  
    22    11    21 1   
    23    12    22 1   
    24    13    23 1   
    25    18    24 1   
@<TRIPOS>SUBSTRUCTURE
     1 5VL         1 TEMP              0 ****  ****    0 ROOT
