@<TRIPOS>MOLECULE
5VM
   15    16     1     0     0
SMALL
abcg2


@<TRIPOS>ATOM
      1 OAG          1.7210    -1.0740    -0.0340 os         1 5VM      -0.215200
      2 CAK          0.3710    -0.8860    -0.0200 ca         1 5VM       0.037100
      3 CAD         -0.6280    -1.8290    -0.0080 ca         1 5VM      -0.061000
      4 CAC         -1.9330    -1.3470     0.0070 ca         1 5VM      -0.100000
      5 CAH         -2.1830     0.0230     0.0080 ca         1 5VM       0.128000
      6 CLB         -3.8260     0.5680     0.0260 cl         1 5VM      -0.181000
      7 CAE         -1.1700     0.9760    -0.0050 ca         1 5VM      -0.091000
      8 CAJ          0.1170     0.4760    -0.0190 ca         1 5VM      -0.021400
      9 NAF          1.3600     1.0690    -0.0340 ns         1 5VM      -0.441600
     10 CAI          2.3240     0.1320    -0.0430 cs         1 5VM       0.494500
     11 SAA          3.9540     0.3230    -0.0600 s          1 5VM      -0.473400
     12 H1          -0.4220    -2.8900    -0.0090 ha         1 5VM       0.148000
     13 H2          -2.7570    -2.0440     0.0170 ha         1 5VM       0.141000
     14 H3          -1.3770     2.0360    -0.0040 ha         1 5VM       0.146000
     15 H4           1.5530     2.0590    -0.0390 hn         1 5VM       0.490000
@<TRIPOS>BOND
     1     1     2 1   
     2     1    10 1   
     3     2     3 ar  
     4     2     8 ar  
     5     3     4 ar  
     6     3    12 1   
     7     4     5 ar  
     8     4    13 1   
     9     5     6 1   
    10     5     7 ar  
    11     7     8 ar  
    12     7    14 1   
    13     8     9 1   
    14     9    10 1   
    15     9    15 1   
    16    10    11 2   
@<TRIPOS>SUBSTRUCTURE
     1 5VM         1 TEMP              0 ****  ****    0 ROOT
