@<TRIPOS>MOLECULE
5VN
   82    86     1     0     0
SMALL
No Charge or Current Charge


@<TRIPOS>ATOM
      1 C21          0.7130     1.2350    -1.6950 c3         1 5VN      -0.085100
      2 C20          0.8850    -0.0360    -0.7750 c6         1 5VN       0.016200
      3 C34          1.6550    -1.1180    -1.6380 c6         1 5VN      -0.098400
      4 C31          3.2010    -0.9940    -1.7080 c6         1 5VN       0.182300
      5 O33          3.5900     0.0230    -2.6380 oh         1 5VN      -0.676000
      6 C27          3.8280    -0.8470    -0.2750 c6         1 5VN      -0.164000
      7 C28          3.5100    -2.1670     0.5200 c          1 5VN       0.716000
      8 O30          3.6960    -3.2390    -0.0410 o          1 5VN      -0.726000
      9 O29          3.2030    -2.1030     1.7030 o          1 5VN      -0.726000
     10 C35          5.3990    -0.7430    -0.3030 c6         1 5VN      -0.042400
     11 C36          5.9840     0.6390    -0.7120 c6         1 5VN      -0.060400
     12 C37          5.3900     1.8250     0.1020 c6         1 5VN      -0.041000
     13 C38          5.8780     1.7930     1.5880 c3         1 5VN      -0.080100
     14 C39          5.9010     3.1720    -0.4960 c3         1 5VN      -0.080100
     15 C40          3.8340     1.7760     0.0060 c6         1 5VN      -0.051400
     16 C25          3.2190     0.4130     0.4580 c6         1 5VN      -0.002500
     17 C22          1.6790     0.4790     0.4500 c2         1 5VN      -0.042400
     18 C23          1.0410     1.0500     1.4940 c2         1 5VN      -0.257200
     19 C24         -0.4720     1.1970     1.6400 c6         1 5VN      -0.025200
     20 C14         -1.3210     0.5480     0.4890 c6         1 5VN      -0.045700
     21 C16         -0.5230    -0.6210    -0.2320 c6         1 5VN      -0.017000
     22 C17         -0.2760    -1.8200     0.7740 c3         1 5VN      -0.094100
     23 C18         -1.4330    -1.1600    -1.4160 c6         1 5VN      -0.072400
     24 C19         -2.9390    -1.4510    -1.0790 c6         1 5VN      -0.070400
     25 C1          -3.6210    -0.1850    -0.4470 c6         1 5VN      -0.052700
     26 C3          -2.8460     0.2510     0.8750 c6         1 5VN      -0.020000
     27 C4          -2.9940    -0.7900     2.0550 c3         1 5VN      -0.079100
     28 C5          -3.5050     1.6150     1.3470 c6         1 5VN      -0.070400
     29 C6          -5.0640     1.6130     1.4960 c6         1 5VN      -0.113400
     30 C7          -5.7460     1.1600     0.1840 c6         1 5VN       0.181300
     31 O9          -7.1610     1.1840     0.4230 oh         1 5VN      -0.643000
     32 C10         -5.2240    -0.2390    -0.3610 c6         1 5VN      -0.021000
     33 C11         -5.7570    -1.4340     0.5080 c3         1 5VN      -0.072100
     34 C12         -5.7750    -0.4720    -1.8320 c3         1 5VN       0.163600
     35 O13         -7.2030    -0.4470    -1.9850 oh         1 5VN      -0.644000
     36 H1           0.0300     1.0680    -2.5320 hc         1 5VN       0.028700
     37 H2           0.3620     2.1150    -1.1450 hc         1 5VN       0.028700
     38 H3           1.6570     1.5440    -2.1450 hc         1 5VN       0.028700
     39 H4           1.4480    -2.1320    -1.2970 hc         1 5VN       0.045200
     40 H5           1.2530    -1.1190    -2.6610 hc         1 5VN       0.045200
     41 H6           3.5640    -1.9460    -2.1250 h1         1 5VN       0.058700
     42 H7           3.1060    -0.1600    -3.4690 ho         1 5VN       0.411000
     43 H9           5.7880    -0.9970     0.6920 hc         1 5VN       0.040200
     44 H10          5.8060    -1.5140    -0.9720 hc         1 5VN       0.040200
     45 H11          7.0750     0.6140    -0.5800 hc         1 5VN       0.026200
     46 H12          5.8350     0.8090    -1.7850 hc         1 5VN       0.026200
     47 H13          6.9690     1.8870     1.6500 hc         1 5VN       0.023700
     48 H14          5.4460     2.6180     2.1670 hc         1 5VN       0.023700
     49 H15          5.6120     0.8630     2.1020 hc         1 5VN       0.023700
     50 H16          5.6010     3.2830    -1.5450 hc         1 5VN       0.023700
     51 H17          5.4990     4.0330     0.0520 hc         1 5VN       0.023700
     52 H18          6.9950     3.2380    -0.4600 hc         1 5VN       0.023700
     53 H19          3.4110     2.5810     0.6230 hc         1 5VN       0.028200
     54 H20          3.5280     2.0150    -1.0180 hc         1 5VN       0.028200
     55 H21          3.5040     0.3320     1.5140 hc         1 5VN       0.076700
     56 H22          1.6170     1.4360     2.3350 ha         1 5VN       0.170000
     57 H23         -0.7440     0.7830     2.6170 hc         1 5VN       0.032200
     58 H24         -0.7110     2.2670     1.7050 hc         1 5VN       0.032200
     59 H25         -1.4190     1.3390    -0.2610 hc         1 5VN       0.036700
     60 H26         -1.1900    -2.3680     1.0050 hc         1 5VN       0.044367
     61 H27          0.3960    -2.5900     0.3930 hc         1 5VN       0.044367
     62 H28          0.1490    -1.4900     1.7270 hc         1 5VN       0.044367
     63 H29         -1.4360    -0.4460    -2.2470 hc         1 5VN       0.036700
     64 H30         -0.9910    -2.0760    -1.8320 hc         1 5VN       0.036700
     65 H31         -3.4140    -1.7420    -2.0210 hc         1 5VN       0.035200
     66 H32         -3.0220    -2.3250    -0.4250 hc         1 5VN       0.035200
     67 H33         -3.4270     0.6210    -1.1700 hc         1 5VN       0.038700
     68 H34         -3.2000    -1.8060     1.7070 hc         1 5VN       0.032700
     69 H35         -2.1050    -0.8540     2.6870 hc         1 5VN       0.032700
     70 H36         -3.8070    -0.5370     2.7410 hc         1 5VN       0.032700
     71 H37         -3.0710     1.9260     2.3070 hc         1 5VN       0.040700
     72 H38         -3.2410     2.4130     0.6380 hc         1 5VN       0.040700
     73 H39         -5.3740     0.9720     2.3310 hc         1 5VN       0.037700
     74 H40         -5.3980     2.6270     1.7560 hc         1 5VN       0.037700
     75 H41         -5.5040     1.9150    -0.5790 h1         1 5VN       0.021700
     76 H42         -7.3960     2.1160     0.6120 ho         1 5VN       0.427000
     77 H43         -6.8420    -1.5560     0.4060 hc         1 5VN       0.037033
     78 H44         -5.3060    -2.3880     0.2120 hc         1 5VN       0.037033
     79 H45         -5.5770    -1.2950     1.5770 hc         1 5VN       0.037033
     80 H46         -5.3260     0.2870    -2.4860 h1         1 5VN       0.015200
     81 H47         -5.4300    -1.4480    -2.1880 h1         1 5VN       0.015200
     82 H48         -7.3910    -0.5790    -2.9380 ho         1 5VN       0.427000
@<TRIPOS>BOND
     1     1     2 1   
     2     1    36 1   
     3     1    37 1   
     4     1    38 1   
     5     2     3 1   
     6     2    17 1   
     7     2    21 1   
     8     3     4 1   
     9     3    39 1   
    10     3    40 1   
    11     4     5 1   
    12     4     6 1   
    13     4    41 1   
    14     5    42 1   
    15     6     7 1   
    16     6    10 1   
    17     6    16 1   
    18     7     8 1   
    19     7     9 1   
    20    10    11 1   
    21    10    43 1   
    22    10    44 1   
    23    11    12 1   
    24    11    45 1   
    25    11    46 1   
    26    12    13 1   
    27    12    14 1   
    28    12    15 1   
    29    13    47 1   
    30    13    48 1   
    31    13    49 1   
    32    14    50 1   
    33    14    51 1   
    34    14    52 1   
    35    15    16 1   
    36    15    53 1   
    37    15    54 1   
    38    16    17 1   
    39    16    55 1   
    40    17    18 2   
    41    18    19 1   
    42    18    56 1   
    43    19    20 1   
    44    19    57 1   
    45    19    58 1   
    46    20    21 1   
    47    20    26 1   
    48    20    59 1   
    49    21    22 1   
    50    21    23 1   
    51    22    60 1   
    52    22    61 1   
    53    22    62 1   
    54    23    24 1   
    55    23    63 1   
    56    23    64 1   
    57    24    25 1   
    58    24    65 1   
    59    24    66 1   
    60    25    26 1   
    61    25    32 1   
    62    25    67 1   
    63    26    27 1   
    64    26    28 1   
    65    27    68 1   
    66    27    69 1   
    67    27    70 1   
    68    28    29 1   
    69    28    71 1   
    70    28    72 1   
    71    29    30 1   
    72    29    73 1   
    73    29    74 1   
    74    30    31 1   
    75    30    32 1   
    76    30    75 1   
    77    31    76 1   
    78    32    33 1   
    79    32    34 1   
    80    33    77 1   
    81    33    78 1   
    82    33    79 1   
    83    34    35 1   
    84    34    80 1   
    85    34    81 1   
    86    35    82 1   
@<TRIPOS>SUBSTRUCTURE
     1 5VN         1 TEMP              0 ****  ****    0 ROOT
