@<TRIPOS>MOLECULE
5VN
   82    86     1     0     0
SMALL
abcg2


@<TRIPOS>ATOM
      1 C21          0.6320     0.9880    -1.6590 c3         1 5VN      -0.085100
      2 C20          0.8290    -0.1790    -0.6670 c6         1 5VN       0.016200
      3 C34          1.6110    -1.2900    -1.4010 c6         1 5VN      -0.098400
      4 C31          3.1110    -1.0790    -1.5850 c6         1 5VN       0.182300
      5 O33          3.4210    -0.0750    -2.5410 oh         1 5VN      -0.676000
      6 C27          3.7840    -0.7820    -0.2430 c6         1 5VN      -0.164000
      7 C28          3.6520    -2.0640     0.6520 c          1 5VN       0.716000
      8 O30          3.8330    -3.1630     0.0860 o          1 5VN      -0.726000
      9 O29          3.4500    -1.9080     1.8710 o          1 5VN      -0.726000
     10 C35          5.3120    -0.5800    -0.3810 c6         1 5VN      -0.042400
     11 C36          5.7770     0.7980    -0.8410 c6         1 5VN      -0.060400
     12 C37          5.1580     1.9510    -0.0450 c6         1 5VN      -0.041000
     13 C38          5.6880     1.9750     1.3910 c3         1 5VN      -0.080100
     14 C39          5.5280     3.2760    -0.7120 c3         1 5VN      -0.080100
     15 C40          3.6350     1.7890    -0.0700 c6         1 5VN      -0.051400
     16 C25          3.1460     0.4300     0.4540 c6         1 5VN      -0.002500
     17 C22          1.6310     0.3500     0.5140 c2         1 5VN      -0.042400
     18 C23          1.0180     0.7790     1.6150 c2         1 5VN      -0.257200
     19 C24         -0.4530     0.7500     1.8740 c6         1 5VN      -0.025200
     20 C14         -1.2780     0.3660     0.6470 c6         1 5VN      -0.045700
     21 C16         -0.5540    -0.7530    -0.1440 c6         1 5VN      -0.017000
     22 C17         -0.3020    -1.9730     0.7610 c3         1 5VN      -0.094100
     23 C18         -1.4250    -1.2070    -1.3240 c6         1 5VN      -0.072400
     24 C19         -2.8850    -1.4410    -0.9590 c6         1 5VN      -0.070400
     25 C1          -3.4910    -0.1530    -0.3950 c6         1 5VN      -0.052700
     26 C3          -2.8010     0.1720     0.9600 c6         1 5VN      -0.020000
     27 C4          -3.0970    -0.8710     2.0510 c3         1 5VN      -0.079100
     28 C5          -3.3300     1.5260     1.4650 c6         1 5VN      -0.070400
     29 C6          -4.8460     1.5990     1.4830 c6         1 5VN      -0.113400
     30 C7          -5.4500     1.3130     0.1180 c6         1 5VN       0.181300
     31 O9          -6.8570     1.4240     0.1730 oh         1 5VN      -0.643000
     32 C10         -5.0500    -0.0640    -0.4530 c6         1 5VN      -0.021000
     33 C11         -5.7540    -1.2160     0.2660 c3         1 5VN      -0.072100
     34 C12         -5.4200    -0.1010    -1.9500 c3         1 5VN       0.163600
     35 O13         -6.8120    -0.0290    -2.1640 oh         1 5VN      -0.644000
     36 H1           0.1300     0.6650    -2.5730 hc         1 5VN       0.028700
     37 H2           0.0560     1.8090    -1.2330 hc         1 5VN       0.028700
     38 H3           1.5900     1.3930    -1.9650 hc         1 5VN       0.028700
     39 H4           1.5190    -2.2350    -0.8680 hc         1 5VN       0.045200
     40 H5           1.1510    -1.4660    -2.3810 hc         1 5VN       0.045200
     41 H6           3.5170    -2.0340    -1.9420 h1         1 5VN       0.058700
     42 H7           2.9170    -0.2770    -3.3350 ho         1 5VN       0.411000
     43 H9           5.7660    -0.7850     0.5930 hc         1 5VN       0.040200
     44 H10          5.7130    -1.3430    -1.0550 hc         1 5VN       0.040200
     45 H11          6.8700     0.8470    -0.7630 hc         1 5VN       0.026200
     46 H12          5.5400     0.9370    -1.8960 hc         1 5VN       0.026200
     47 H13          6.7690     2.1310     1.4020 hc         1 5VN       0.023700
     48 H14          5.2330     2.7920     1.9570 hc         1 5VN       0.023700
     49 H15          5.4870     1.0530     1.9370 hc         1 5VN       0.023700
     50 H16          5.1900     3.3010    -1.7510 hc         1 5VN       0.023700
     51 H17          5.0720     4.1220    -0.1930 hc         1 5VN       0.023700
     52 H18          6.6100     3.4310    -0.7130 hc         1 5VN       0.023700
     53 H19          3.1790     2.5740     0.5440 hc         1 5VN       0.028200
     54 H20          3.2950     1.9640    -1.0910 hc         1 5VN       0.028200
     55 H21          3.4740     0.3710     1.4940 hc         1 5VN       0.076700
     56 H22          1.6290     1.1500     2.4350 ha         1 5VN       0.170000
     57 H23         -0.6340     0.0560     2.7030 hc         1 5VN       0.032200
     58 H24         -0.7700     1.7290     2.2490 hc         1 5VN       0.032200
     59 H25         -1.2790     1.2480    -0.0000 hc         1 5VN       0.036700
     60 H26         -1.1990    -2.2740     1.2950 hc         1 5VN       0.044367
     61 H27          0.0090    -2.8420     0.1810 hc         1 5VN       0.044367
     62 H28          0.4800    -1.7820     1.4970 hc         1 5VN       0.044367
     63 H29         -1.4180    -0.4610    -2.1230 hc         1 5VN       0.036700
     64 H30         -1.0060    -2.1180    -1.7600 hc         1 5VN       0.036700
     65 H31         -3.4070    -1.7720    -1.8560 hc         1 5VN       0.035200
     66 H32         -2.9760    -2.2650    -0.2460 hc         1 5VN       0.035200
     67 H33         -3.1580     0.6530    -1.0690 hc         1 5VN       0.038700
     68 H34         -3.1560    -1.8910     1.6770 hc         1 5VN       0.032700
     69 H35         -2.3420    -0.8640     2.8370 hc         1 5VN       0.032700
     70 H36         -4.0480    -0.6700     2.5420 hc         1 5VN       0.032700
     71 H37         -2.9490     1.7310     2.4690 hc         1 5VN       0.040700
     72 H38         -2.9460     2.3290     0.8230 hc         1 5VN       0.040700
     73 H39         -5.2710     0.9180     2.2270 hc         1 5VN       0.037700
     74 H40         -5.1470     2.6050     1.7960 hc         1 5VN       0.037700
     75 H41         -5.0360     2.0640    -0.5790 h1         1 5VN       0.021700
     76 H42         -7.0620     2.2510     0.6190 ho         1 5VN       0.427000
     77 H43         -6.8220    -1.2150     0.0570 hc         1 5VN       0.037033
     78 H44         -5.3570    -2.1770    -0.0640 hc         1 5VN       0.037033
     79 H45         -5.6370    -1.1740     1.3470 hc         1 5VN       0.037033
     80 H46         -4.9040     0.7340    -2.4500 h1         1 5VN       0.015200
     81 H47         -5.0340    -1.0220    -2.3980 h1         1 5VN       0.015200
     82 H48         -6.9760    -0.3100    -3.0690 ho         1 5VN       0.427000
@<TRIPOS>BOND
     1     1     2 1   
     2     1    36 1   
     3     1    37 1   
     4     1    38 1   
     5     2     3 1   
     6     2    17 1   
     7     2    21 1   
     8     3     4 1   
     9     3    39 1   
    10     3    40 1   
    11     4     5 1   
    12     4     6 1   
    13     4    41 1   
    14     5    42 1   
    15     6     7 1   
    16     6    10 1   
    17     6    16 1   
    18     7     8 1   
    19     7     9 1   
    20    10    11 1   
    21    10    43 1   
    22    10    44 1   
    23    11    12 1   
    24    11    45 1   
    25    11    46 1   
    26    12    13 1   
    27    12    14 1   
    28    12    15 1   
    29    13    47 1   
    30    13    48 1   
    31    13    49 1   
    32    14    50 1   
    33    14    51 1   
    34    14    52 1   
    35    15    16 1   
    36    15    53 1   
    37    15    54 1   
    38    16    17 1   
    39    16    55 1   
    40    17    18 2   
    41    18    19 1   
    42    18    56 1   
    43    19    20 1   
    44    19    57 1   
    45    19    58 1   
    46    20    21 1   
    47    20    26 1   
    48    20    59 1   
    49    21    22 1   
    50    21    23 1   
    51    22    60 1   
    52    22    61 1   
    53    22    62 1   
    54    23    24 1   
    55    23    63 1   
    56    23    64 1   
    57    24    25 1   
    58    24    65 1   
    59    24    66 1   
    60    25    26 1   
    61    25    32 1   
    62    25    67 1   
    63    26    27 1   
    64    26    28 1   
    65    27    68 1   
    66    27    69 1   
    67    27    70 1   
    68    28    29 1   
    69    28    71 1   
    70    28    72 1   
    71    29    30 1   
    72    29    73 1   
    73    29    74 1   
    74    30    31 1   
    75    30    32 1   
    76    30    75 1   
    77    31    76 1   
    78    32    33 1   
    79    32    34 1   
    80    33    77 1   
    81    33    78 1   
    82    33    79 1   
    83    34    35 1   
    84    34    80 1   
    85    34    81 1   
    86    35    82 1   
@<TRIPOS>SUBSTRUCTURE
     1 5VN         1 TEMP              0 ****  ****    0 ROOT
