@<TRIPOS>MOLECULE
5VO
   28    28     1     0     0
SMALL
abcg2


@<TRIPOS>ATOM
      1 C21         -5.0120    -0.3500    -0.0020 c          1 5VO       0.717000
      2 O2          -4.8620    -1.5850    -0.0860 o          1 5VO      -0.743500
      3 C22         -3.7510     0.5320    -0.0230 c3         1 5VO      -0.205400
      4 C23         -2.4220    -0.2050    -0.0230 c3         1 5VO      -0.055400
      5 C24         -1.2280     0.7440    -0.0300 c3         1 5VO      -0.074400
      6 C25          0.0900    -0.0120    -0.0260 c3         1 5VO      -0.170400
      7 C26          1.3190     0.8630    -0.0210 c          1 5VO       0.577700
      8 O3           1.2360     2.0730    -0.0190 o          1 5VO      -0.529100
      9 C27          2.6590     0.2020    -0.0180 ca         1 5VO      -0.167600
     10 C28          2.8010    -1.1850    -0.0120 ca         1 5VO      -0.066500
     11 C29          4.0630    -1.7640    -0.0080 ca         1 5VO      -0.130500
     12 C30          5.1960    -0.9620    -0.0100 ca         1 5VO      -0.096000
     13 C31          5.0640     0.4220    -0.0160 ca         1 5VO      -0.130500
     14 C32          3.8050     0.9990    -0.0200 ca         1 5VO      -0.066500
     15 OXT         -6.1010     0.2560     0.0930 o          1 5VO      -0.743500
     16 H1          -3.8080     1.1840    -0.9040 hc         1 5VO       0.017200
     17 H2          -3.7960     1.2140     0.8340 hc         1 5VO       0.017200
     18 H3          -2.3590    -0.8560     0.8540 hc         1 5VO       0.036200
     19 H4          -2.3640    -0.8660    -0.8920 hc         1 5VO       0.036200
     20 H5          -1.2830     1.3930    -0.9090 hc         1 5VO       0.040200
     21 H6          -1.2810     1.4040     0.8400 hc         1 5VO       0.040200
     22 H7           0.1390    -0.6750     0.8450 hc         1 5VO       0.058700
     23 H8           0.1460    -0.6790    -0.8930 hc         1 5VO       0.058700
     24 H9           1.9350    -1.8320    -0.0110 ha         1 5VO       0.127000
     25 H10          4.1590    -2.8410    -0.0030 ha         1 5VO       0.109500
     26 H11          6.1790    -1.4130    -0.0060 ha         1 5VO       0.105000
     27 H12          5.9440     1.0520    -0.0180 ha         1 5VO       0.109500
     28 H13          3.7100     2.0770    -0.0250 ha         1 5VO       0.127000
@<TRIPOS>BOND
     1     1     2 1   
     2     1     3 1   
     3     1    15 1   
     4     3     4 1   
     5     3    16 1   
     6     3    17 1   
     7     4     5 1   
     8     4    18 1   
     9     4    19 1   
    10     5     6 1   
    11     5    20 1   
    12     5    21 1   
    13     6     7 1   
    14     6    22 1   
    15     6    23 1   
    16     7     8 2   
    17     7     9 1   
    18     9    10 ar  
    19     9    14 ar  
    20    10    11 ar  
    21    10    24 1   
    22    11    12 ar  
    23    11    25 1   
    24    12    13 ar  
    25    12    26 1   
    26    13    14 ar  
    27    13    27 1   
    28    14    28 1   
@<TRIPOS>SUBSTRUCTURE
     1 5VO         1 TEMP              0 ****  ****    0 ROOT
