@<TRIPOS>MOLECULE
5VO
   28    28     1     0     0
SMALL
No Charge or Current Charge


@<TRIPOS>ATOM
      1 C21         -5.0320    -0.3980    -0.0070 c          1 5VO       0.717000
      2 O2          -5.4510    -0.8870    -1.0450 o          1 5VO      -0.743500
      3 C22         -3.8600     0.5970    -0.0930 c3         1 5VO      -0.205400
      4 C23         -2.5100    -0.1570    -0.0190 c3         1 5VO      -0.055400
      5 C24         -1.2850     0.7810    -0.1000 c3         1 5VO      -0.074400
      6 C25          0.0620     0.0200    -0.0240 c3         1 5VO      -0.170400
      7 C26          1.3370     0.8860    -0.0990 c          1 5VO       0.577700
      8 O3           1.2530     2.1050    -0.2110 o          1 5VO      -0.529100
      9 C27          2.6990     0.2150    -0.0310 ca         1 5VO      -0.167600
     10 C28          2.8370    -1.1900     0.0990 ca         1 5VO      -0.066500
     11 C29          4.1110    -1.7800     0.1590 ca         1 5VO      -0.130500
     12 C30          5.2650    -0.9850     0.0900 ca         1 5VO      -0.096000
     13 C31          5.1440     0.4060    -0.0380 ca         1 5VO      -0.130500
     14 C32          3.8720     1.0030    -0.0990 ca         1 5VO      -0.066500
     15 OXT         -5.4600    -0.6910     1.0990 o          1 5VO      -0.743500
     16 H1          -3.8650     1.1110    -1.0630 hc         1 5VO       0.017200
     17 H2          -3.8720     1.2790     0.7670 hc         1 5VO       0.017200
     18 H3          -2.4660    -0.7250     0.9190 hc         1 5VO       0.036200
     19 H4          -2.4590    -0.8860    -0.8360 hc         1 5VO       0.036200
     20 H5          -1.3270     1.3480    -1.0380 hc         1 5VO       0.040200
     21 H6          -1.3350     1.5100     0.7190 hc         1 5VO       0.040200
     22 H7           0.1270    -0.5900     0.8840 hc         1 5VO       0.058700
     23 H8           0.1340    -0.7460    -0.8050 hc         1 5VO       0.058700
     24 H9           1.9680    -1.8410     0.1560 ha         1 5VO       0.127000
     25 H10          4.2030    -2.8600     0.2590 ha         1 5VO       0.109500
     26 H11          6.2490    -1.4460     0.1370 ha         1 5VO       0.105000
     27 H12          6.0360     1.0260    -0.0920 ha         1 5VO       0.109500
     28 H13          3.8050     2.0850    -0.1990 ha         1 5VO       0.127000
@<TRIPOS>BOND
     1     1     2 1   
     2     1     3 1   
     3     1    15 1   
     4     3     4 1   
     5     3    16 1   
     6     3    17 1   
     7     4     5 1   
     8     4    18 1   
     9     4    19 1   
    10     5     6 1   
    11     5    20 1   
    12     5    21 1   
    13     6     7 1   
    14     6    22 1   
    15     6    23 1   
    16     7     8 2   
    17     7     9 1   
    18     9    10 ar  
    19     9    14 ar  
    20    10    11 ar  
    21    10    24 1   
    22    11    12 ar  
    23    11    25 1   
    24    12    13 ar  
    25    12    26 1   
    26    13    14 ar  
    27    13    27 1   
    28    14    28 1   
@<TRIPOS>SUBSTRUCTURE
     1 5VO         1 TEMP              0 ****  ****    0 ROOT
