@<TRIPOS>MOLECULE
5VP
   39    42     1     0     0
SMALL
No Charge or Current Charge


@<TRIPOS>ATOM
      1 N1           2.9190     6.8680    -5.1480 nb         1 5VP      -0.283000
      2 N3           3.6590     4.8510    -6.0210 nu         1 5VP      -0.913100
      3 C4           1.4950     4.9560    -4.8840 ca         1 5VP      -0.237800
      4 C5          -0.0620     3.3360    -4.1030 cc         1 5VP      -0.186400
      5 C6           0.9960     3.5800    -4.9600 cd         1 5VP       0.008600
      6 C7           1.6060     2.4970    -5.7630 ca         1 5VP      -0.049800
      7 C8           2.0280     2.7170    -7.0920 ca         1 5VP      -0.101000
      8 C10          2.7160     0.3930    -7.2980 ca         1 5VP      -0.103000
      9 C13          4.9010     5.3400    -6.6170 c3         1 5VP       0.286100
     10 C15          6.4030     3.2920    -6.6060 ca         1 5VP      -0.051000
     11 C17          6.7550     1.9700    -8.6190 ca         1 5VP       0.152100
     12 C1           2.6670     5.5660    -5.3790 ca         1 5VP       0.442900
     13 C11          2.2540     0.1470    -5.9950 ca         1 5VP      -0.110500
     14 C12          1.6900     1.1890    -5.2380 ca         1 5VP      -0.101000
     15 C14          5.5670     4.1710    -7.3220 ca         1 5VP      -0.162300
     16 C16          6.9960     2.1960    -7.2560 ca         1 5VP      -0.180000
     17 C18          5.9210     2.8410    -9.3380 ca         1 5VP      -0.180000
     18 C19          5.3260     3.9390    -8.6920 ca         1 5VP      -0.051000
     19 C2           2.0150     7.5360    -4.4020 ca         1 5VP       0.277000
     20 C3           0.6750     5.7260    -4.0810 ca         1 5VP       0.164300
     21 C9           2.5930     1.6770    -7.8490 ca         1 5VP      -0.110500
     22 N2           0.9050     7.0260    -3.8290 nb         1 5VP      -0.181000
     23 S1          -0.6670     4.8280    -3.3360 ss         1 5VP      -0.072900
     24 Cl1          2.3460     9.2350    -4.1030 cl         1 5VP      -0.138000
     25 H1           3.4710     3.8550    -6.1200 hn         1 5VP       0.515000
     26 H2          -0.5880     2.4050    -3.9290 h4         1 5VP       0.223000
     27 H4           1.8920     3.6920    -7.5550 ha         1 5VP       0.121500
     28 H5           3.1530    -0.4130    -7.8830 ha         1 5VP       0.115000
     29 H6           4.6930     6.1410    -7.3410 h1         1 5VP       0.065200
     30 H7           5.5690     5.7470    -5.8440 h1         1 5VP       0.065200
     31 H8           6.5890     3.4560    -5.5460 ha         1 5VP       0.118000
     32 H9           2.3340    -0.8510    -5.5700 ha         1 5VP       0.115500
     33 H10          1.3480     0.9810    -4.2270 ha         1 5VP       0.121500
     34 H11          7.6390     1.5190    -6.7000 ha         1 5VP       0.124000
     35 H12          5.7260     2.6720   -10.3940 ha         1 5VP       0.124000
     36 H13          4.6730     4.6050    -9.2530 ha         1 5VP       0.118000
     37 H14          2.9240     1.8640    -8.8690 ha         1 5VP       0.115500
     38 H15          7.0590     0.9060   -10.1790 ho         1 5VP       0.467000
     39 O1           7.3330     0.9030    -9.2380 oh         1 5VP      -0.530100
@<TRIPOS>BOND
     1     1    12 ar  
     2     1    19 ar  
     3     2     9 1   
     4     2    12 1   
     5     2    25 1   
     6     3     5 1   
     7     3    12 ar  
     8     3    20 ar  
     9     4     5 2   
    10     4    23 1   
    11     4    26 1   
    12     5     6 1   
    13     6     7 ar  
    14     6    14 ar  
    15     7    21 ar  
    16     7    27 1   
    17     8    13 ar  
    18     8    21 ar  
    19     8    28 1   
    20     9    15 1   
    21     9    29 1   
    22     9    30 1   
    23    10    15 ar  
    24    10    16 ar  
    25    10    31 1   
    26    11    16 ar  
    27    11    17 ar  
    28    11    39 1   
    29    13    14 ar  
    30    13    32 1   
    31    14    33 1   
    32    15    18 ar  
    33    16    34 1   
    34    17    18 ar  
    35    17    35 1   
    36    18    36 1   
    37    19    22 ar  
    38    19    24 1   
    39    20    22 ar  
    40    20    23 1   
    41    21    37 1   
    42    38    39 1   
@<TRIPOS>SUBSTRUCTURE
     1 5VP         1 TEMP              0 ****  ****    0 ROOT
