@<TRIPOS>MOLECULE
5VP
   39    42     1     0     0
SMALL
bcc


@<TRIPOS>ATOM
      1 N1           3.0600     6.6980    -5.0260 nb         1 5VP      -0.809000
      2 N3           3.6540     4.7280    -6.0150 nu         1 5VP      -0.857900
      3 C4           1.5300     4.8750    -4.8640 ca         1 5VP      -0.368400
      4 C5          -0.2350     3.4930    -4.3200 cc         1 5VP      -0.136400
      5 C6           0.9240     3.5800    -5.0210 cd         1 5VP       0.008600
      6 C7           1.4410     2.4780    -5.8550 ca         1 5VP      -0.049800
      7 C8           1.5570     2.6370    -7.2380 ca         1 5VP      -0.119000
      8 C10          2.4120     0.3990    -7.4440 ca         1 5VP      -0.121000
      9 C13          4.9150     5.2620    -6.5020 c3         1 5VP       0.286100
     10 C15          6.7110     3.5000    -6.6280 ca         1 5VP      -0.069000
     11 C17          6.9590     2.0750    -8.5490 ca         1 5VP       0.152100
     12 C1           2.7640     5.4280    -5.3180 ca         1 5VP       0.771200
     13 C11          2.2910     0.2300    -6.0720 ca         1 5VP      -0.128500
     14 C12          1.8090     1.2640    -5.2800 ca         1 5VP      -0.119000
     15 C14          5.6560     4.1780    -7.2310 ca         1 5VP      -0.162300
     16 C16          7.3640     2.4630    -7.2740 ca         1 5VP      -0.198000
     17 C18          5.9040     2.7450    -9.1650 ca         1 5VP      -0.198000
     18 C19          5.2650     3.7840    -8.5070 ca         1 5VP      -0.069000
     19 C2           2.2090     7.3730    -4.2840 ca         1 5VP       0.803000
     20 C3           0.7730     5.7230    -4.0630 ca         1 5VP       0.492600
     21 C9           2.0420     1.6040    -8.0260 ca         1 5VP      -0.128500
     22 N2           1.0830     6.9860    -3.7520 nb         1 5VP      -0.707000
     23 S1          -0.6490     4.9420    -3.4770 ss         1 5VP      -0.072900
     24 CL1          2.6640     9.0150    -3.9560 cl         1 5VP      -0.138000
     25 H1           3.4680     3.7550    -6.1980 hn         1 5VP       0.459800
     26 H2          -0.8970     2.6420    -4.2770 h4         1 5VP       0.173000
     27 H4           1.2600     3.5730    -7.6970 ha         1 5VP       0.139500
     28 H5           2.7930    -0.4060    -8.0590 ha         1 5VP       0.133000
     29 H6           4.7220     6.1110    -7.1620 h1         1 5VP       0.065200
     30 H7           5.5130     5.6340    -5.6670 h1         1 5VP       0.065200
     31 H8           7.0320     3.7860    -5.6330 ha         1 5VP       0.136000
     32 H9           2.5780    -0.7070    -5.6120 ha         1 5VP       0.133500
     33 H10          1.7300     1.1350    -4.2080 ha         1 5VP       0.139500
     34 H11          8.1850     1.9480    -6.7910 ha         1 5VP       0.142000
     35 H12          5.5810     2.4570   -10.1600 ha         1 5VP       0.142000
     36 H13          4.4470     4.2950    -9.0020 ha         1 5VP       0.136000
     37 H14          2.1290     1.7410    -9.0960 ha         1 5VP       0.133500
     38 H15          7.2550     0.8770   -10.0110 ho         1 5VP       0.428000
     39 O1           7.6180     1.0580    -9.1360 oh         1 5VP      -0.491100
@<TRIPOS>BOND
     1     1    12 ar  
     2     1    19 ar  
     3     2     9 1   
     4     2    12 1   
     5     2    25 1   
     6     3     5 1   
     7     3    12 ar  
     8     3    20 ar  
     9     4     5 2   
    10     4    23 1   
    11     4    26 1   
    12     5     6 1   
    13     6     7 ar  
    14     6    14 ar  
    15     7    21 ar  
    16     7    27 1   
    17     8    13 ar  
    18     8    21 ar  
    19     8    28 1   
    20     9    15 1   
    21     9    29 1   
    22     9    30 1   
    23    10    15 ar  
    24    10    16 ar  
    25    10    31 1   
    26    11    16 ar  
    27    11    17 ar  
    28    11    39 1   
    29    13    14 ar  
    30    13    32 1   
    31    14    33 1   
    32    15    18 ar  
    33    16    34 1   
    34    17    18 ar  
    35    17    35 1   
    36    18    36 1   
    37    19    22 ar  
    38    19    24 1   
    39    20    22 ar  
    40    20    23 1   
    41    21    37 1   
    42    38    39 1   
@<TRIPOS>SUBSTRUCTURE
     1 5VP         1 TEMP              0 ****  ****    0 ROOT
