@<TRIPOS>MOLECULE
5VQ
   10     9     1     0     0
SMALL
No Charge or Current Charge


@<TRIPOS>ATOM
      1 O            1.4530    -0.0900     0.5510 oh         1 5VQ      -0.655000
      2 C1           0.5780     0.5130    -0.4020 c3         1 5VQ       0.192800
      3 C2          -0.7290    -0.2450    -0.4220 c2         1 5VQ      -0.217200
      4 C3          -1.7920     0.0070     0.3600 c2         1 5VQ      -0.307000
      5 H1           2.2840     0.4360     0.5430 ho         1 5VQ       0.440000
      6 H2          -0.7580    -1.0550    -1.1540 ha         1 5VQ       0.178000
      7 H4          -2.7070    -0.5840     0.2890 ha         1 5VQ       0.162500
      8 H5          -1.7830     0.8110     1.0980 ha         1 5VQ       0.162500
      9 H7           0.3940     1.5640    -0.1410 h1         1 5VQ       0.021700
     10 H8           1.0310     0.4910    -1.4020 h1         1 5VQ       0.021700
@<TRIPOS>BOND
     1     1     2 1   
     2     1     5 1   
     3     2     3 1   
     4     2     9 1   
     5     2    10 1   
     6     3     4 2   
     7     3     6 1   
     8     4     7 1   
     9     4     8 1   
@<TRIPOS>SUBSTRUCTURE
     1 5VQ         1 TEMP              0 ****  ****    0 ROOT
