@<TRIPOS>MOLECULE
5VQ
   10     9     1     0     0
SMALL
abcg2


@<TRIPOS>ATOM
      1 O            1.6050    -0.1940     0.3380 oh         1 5VQ      -0.655000
      2 C1           0.5570     0.5370    -0.2680 c3         1 5VQ       0.192800
      3 C2          -0.6750    -0.3090    -0.2820 c2         1 5VQ      -0.217200
      4 C3          -1.8390     0.0630     0.2350 c2         1 5VQ      -0.307000
      5 H1           2.4220     0.2950     0.2040 ho         1 5VQ       0.440000
      6 H2          -0.5880    -1.2740    -0.7750 ha         1 5VQ       0.178000
      7 H4          -2.7150    -0.5690     0.1730 ha         1 5VQ       0.162500
      8 H5          -1.9610     1.0170     0.7360 ha         1 5VQ       0.162500
      9 H7           0.3520     1.4770     0.2610 h1         1 5VQ       0.021700
     10 H8           0.8130     0.8040    -1.3020 h1         1 5VQ       0.021700
@<TRIPOS>BOND
     1     1     2 1   
     2     1     5 1   
     3     2     3 1   
     4     2     9 1   
     5     2    10 1   
     6     3     4 2   
     7     3     6 1   
     8     4     7 1   
     9     4     8 1   
@<TRIPOS>SUBSTRUCTURE
     1 5VQ         1 TEMP              0 ****  ****    0 ROOT
