@<TRIPOS>MOLECULE
5VR
   36    36     1     0     0
SMALL
No Charge or Current Charge


@<TRIPOS>ATOM
      1 OAL         19.8450    -5.6350   -28.3640 o          1 5VR      -0.714200
      2 SAI         20.2640    -5.6300   -26.9530 s6         1 5VR       1.527300
      3 OAJ         21.6700    -6.0170   -26.7420 o          1 5VR      -0.714200
      4 OAK         19.3160    -6.2950   -26.0410 o          1 5VR      -0.714200
      5 OAH         20.1990    -4.0080   -26.5160 os         1 5VR      -0.429000
      6 NAG         20.4700    -3.6370   -25.0820 n7         1 5VR      -0.544900
      7 CAE         21.3610    -2.4500   -24.9980 c6         1 5VR       0.130500
      8 CAF         22.7930    -2.7580   -25.5130 c6         1 5VR      -0.055400
      9 CB          23.5320    -3.7060   -24.5370 c6         1 5VR      -0.078400
     10 CAD         21.4180    -1.8970   -23.5420 c6         1 5VR       0.102000
     11 N           22.2440    -2.7120   -22.6050 n          1 5VR      -0.387800
     12 CAM         21.9260    -2.7470   -21.2350 c          1 5VR       0.615900
     13 OAN         22.6370    -3.2930   -20.3980 o          1 5VR      -0.617100
     14 CA          23.6080    -3.0910   -23.1060 c6         1 5VR       0.027700
     15 C           24.6780    -1.9610   -22.9190 c          1 5VR       0.587100
     16 O           24.6320    -1.1780   -21.9750 o          1 5VR      -0.586100
     17 NAQ         25.7090    -1.8920   -23.8510 ns         1 5VR      -0.366500
     18 NAR         26.8330    -1.0130   -23.7320 ns         1 5VR      -0.382500
     19 CAS         27.8620    -1.1960   -22.8230 c          1 5VR       0.594100
     20 OAU         27.9560    -2.1980   -22.1250 o          1 5VR      -0.581100
     21 CAT         28.8800    -0.0620   -22.7660 c3         1 5VR      -0.173100
     22 HAG         19.5470    -3.4290   -24.6760 hn         1 5VR       0.395000
     23 HAE         20.9260    -1.6650   -25.6340 h1         1 5VR       0.043700
     24 HB4         22.7550    -3.2030   -26.5160 hc         1 5VR       0.052200
     25 HAF         23.3530    -1.8190   -25.6180 hc         1 5VR       0.052200
     26 HB2         22.9840    -4.6570   -24.4810 hc         1 5VR       0.077700
     27 HB1         24.5230    -3.9750   -24.9250 hc         1 5VR       0.077700
     28 HAD         21.8410    -0.8830   -23.5720 h1         1 5VR       0.047200
     29 HB3         20.3950    -1.8010   -23.1500 h1         1 5VR       0.047200
     30 H1          20.9670    -2.2480   -20.9990 h5         1 5VR       0.007200
     31 HA          23.9920    -3.8950   -22.4620 h1         1 5VR       0.104700
     32 HAQ         25.7490    -2.5910   -24.5880 hn         1 5VR       0.337500
     33 HAR         26.7970    -0.1370   -24.2480 hn         1 5VR       0.335500
     34 HAT         28.3560     0.8760   -22.5530 hc         1 5VR       0.059700
     35 HB6         29.6820    -0.2500   -22.0440 hc         1 5VR       0.059700
     36 HB5         29.2740     0.1140   -23.7730 hc         1 5VR       0.059700
@<TRIPOS>BOND
     1     1     2 1   
     2     2     3 1   
     3     2     4 1   
     4     2     5 1   
     5     5     6 1   
     6     6     7 1   
     7     6    22 1   
     8     7     8 1   
     9     7    10 1   
    10     7    23 1   
    11     8     9 1   
    12     8    24 1   
    13     8    25 1   
    14     9    14 1   
    15     9    26 1   
    16     9    27 1   
    17    10    11 1   
    18    10    28 1   
    19    10    29 1   
    20    11    12 1   
    21    11    14 1   
    22    12    13 2   
    23    12    30 1   
    24    14    15 1   
    25    14    31 1   
    26    15    16 2   
    27    15    17 1   
    28    17    18 1   
    29    17    32 1   
    30    18    19 1   
    31    18    33 1   
    32    19    20 2   
    33    19    21 1   
    34    21    34 1   
    35    21    35 1   
    36    21    36 1   
@<TRIPOS>SUBSTRUCTURE
     1 5VR         1 TEMP              0 ****  ****    0 ROOT
