@<TRIPOS>MOLECULE
5VR
   36    36     1     0     0
SMALL
abcg2


@<TRIPOS>ATOM
      1 OAL         19.6640    -5.8090   -27.7230 o          1 5VR      -0.714200
      2 SAI         20.2640    -5.6680   -26.4040 s6         1 5VR       1.527300
      3 OAJ         21.6970    -5.9220   -26.3640 o          1 5VR      -0.714200
      4 OAK         19.5240    -6.3080   -25.3250 o          1 5VR      -0.714200
      5 OAH         20.0620    -4.0380   -26.1920 os         1 5VR      -0.429000
      6 NAG         20.5110    -3.6070   -24.8890 n7         1 5VR      -0.544900
      7 CAE         21.3030    -2.3850   -25.0600 c6         1 5VR       0.130500
      8 CAF         22.6480    -2.6750   -25.7240 c6         1 5VR      -0.055400
      9 CB          23.5350    -3.5490   -24.8420 c6         1 5VR      -0.078400
     10 CAD         21.5310    -1.7900   -23.6710 c6         1 5VR       0.102000
     11 N           22.4220    -2.6200   -22.8680 n          1 5VR      -0.387800
     12 CAM         22.0720    -3.0500   -21.6440 c          1 5VR       0.615900
     13 OAN         22.7720    -3.7280   -20.8980 o          1 5VR      -0.617100
     14 CA          23.7160    -2.9660   -23.4310 c6         1 5VR       0.027700
     15 C           24.6730    -1.7680   -23.3250 c          1 5VR       0.587100
     16 O           24.4000    -0.7450   -22.7240 o          1 5VR      -0.586100
     17 NAQ         25.8760    -1.9660   -23.9390 ns         1 5VR      -0.366500
     18 NAR         26.9250    -1.1040   -23.7160 ns         1 5VR      -0.382500
     19 CAS         27.6560    -1.1720   -22.5660 c          1 5VR       0.594100
     20 OAU         27.4580    -2.0330   -21.7200 o          1 5VR      -0.581100
     21 CAT         28.7300    -0.1250   -22.4390 c3         1 5VR      -0.173100
     22 HAG         19.6430    -3.3660   -24.4160 hn         1 5VR       0.395000
     23 HAE         20.7540    -1.6450   -25.6540 h1         1 5VR       0.043700
     24 HB4         22.4870    -3.1670   -26.6830 hc         1 5VR       0.052200
     25 HAF         23.1360    -1.7170   -25.9290 hc         1 5VR       0.052200
     26 HB2         23.0780    -4.5310   -24.7390 hc         1 5VR       0.077700
     27 HB1         24.5040    -3.7000   -25.3170 hc         1 5VR       0.077700
     28 HAD         21.9680    -0.7960   -23.7890 h1         1 5VR       0.047200
     29 HB3         20.5900    -1.6790   -23.1310 h1         1 5VR       0.047200
     30 H1          21.0580    -2.7320   -21.3580 h5         1 5VR       0.007200
     31 HA          24.1440    -3.7320   -22.7820 h1         1 5VR       0.104700
     32 HAQ         26.1270    -2.8800   -24.2850 hn         1 5VR       0.337500
     33 HAR         27.0410    -0.3440   -24.3680 hn         1 5VR       0.335500
     34 HAT         28.5370     0.4610   -21.5380 hc         1 5VR       0.059700
     35 HB6         29.6910    -0.6260   -22.3140 hc         1 5VR       0.059700
     36 HB5         28.7790     0.5420   -23.2980 hc         1 5VR       0.059700
@<TRIPOS>BOND
     1     1     2 1   
     2     2     3 1   
     3     2     4 1   
     4     2     5 1   
     5     5     6 1   
     6     6     7 1   
     7     6    22 1   
     8     7     8 1   
     9     7    10 1   
    10     7    23 1   
    11     8     9 1   
    12     8    24 1   
    13     8    25 1   
    14     9    14 1   
    15     9    26 1   
    16     9    27 1   
    17    10    11 1   
    18    10    28 1   
    19    10    29 1   
    20    11    12 1   
    21    11    14 1   
    22    12    13 2   
    23    12    30 1   
    24    14    15 1   
    25    14    31 1   
    26    15    16 2   
    27    15    17 1   
    28    17    18 1   
    29    17    32 1   
    30    18    19 1   
    31    18    33 1   
    32    19    20 2   
    33    19    21 1   
    34    21    34 1   
    35    21    35 1   
    36    21    36 1   
@<TRIPOS>SUBSTRUCTURE
     1 5VR         1 TEMP              0 ****  ****    0 ROOT
