@<TRIPOS>MOLECULE
5VS
   51    55     1     0     0
SMALL
bcc


@<TRIPOS>ATOM
      1 C5           3.4330     1.8670    -1.0570 c          1 5VS       0.720100
      2 C7           1.9810     1.5670    -0.9720 ca         1 5VS      -0.192600
      3 C8           1.0890     2.1950    -1.8340 ca         1 5VS      -0.053000
      4 C10         -0.7170     0.9690    -0.8610 ca         1 5VS       0.087600
      5 C15          1.5880    -2.2750     0.2470 ca         1 5VS      -0.098300
      6 C17         -0.1600    -3.4240    -0.9590 ca         1 5VS      -0.132500
      7 C20          1.0400    -2.7340     1.4440 ca         1 5VS      -0.111000
      8 C22         -2.8600     0.6170     0.3600 ca         1 5VS      -0.098700
      9 C24         -3.7150     0.7790     2.5440 ca         1 5VS      -0.250300
     10 C2           3.5400     0.8350     1.1860 c6         1 5VS       0.385600
     11 C3           3.0010     1.9520     2.0870 c3         1 5VS      -0.103600
     12 N4           4.1520     1.4030    -0.0210 ns         1 5VS      -0.603900
     13 O6           3.9230     2.4670    -2.0050 o          1 5VS      -0.634500
     14 C9          -0.2610     1.9040    -1.7850 ca         1 5VS      -0.136000
     15 C11          0.1600     0.3430     0.0120 ca         1 5VS      -0.143000
     16 C12          1.5170     0.6370    -0.0380 ca         1 5VS       0.138600
     17 N13          2.4300    -0.0350     0.8080 nh         1 5VS      -0.628000
     18 C14          2.7810    -1.3620     0.2720 c3         1 5VS       0.229100
     19 C16          0.9820    -2.6310    -0.9510 ca         1 5VS      -0.111000
     20 C18         -0.7060    -3.8670     0.2370 ca         1 5VS      -0.122000
     21 C19         -0.1000    -3.5230     1.4400 ca         1 5VS      -0.132500
     22 N21         -2.0890     0.6550    -0.7890 n          1 5VS      -0.280200
     23 C23         -2.6330     0.9470     1.6750 ca         1 5VS      -0.086000
     24 C25         -4.9280     0.3130     2.0640 ca         1 5VS       0.403200
     25 N26         -5.1530     0.0040     0.7810 nb         1 5VS      -0.667000
     26 C27         -4.1300     0.1620    -0.0170 ca         1 5VS       0.488200
     27 N28         -4.0850    -0.0670    -1.3690 ns         1 5VS      -0.540400
     28 C30         -2.8420     0.2180    -1.8740 c          1 5VS       0.815500
     29 O31         -2.4640     0.1080    -3.0190 o          1 5VS      -0.609500
     30 H1           1.4560     2.9220    -2.5460 ha         1 5VS       0.161000
     31 H2          -0.6260    -3.6860    -1.9000 ha         1 5VS       0.133500
     32 H3           1.5010    -2.4570     2.3850 ha         1 5VS       0.135000
     33 H4          -3.6080     1.0130     3.5930 ha         1 5VS       0.146000
     34 H5           5.1870    -0.6010     1.3150 hc         1 5VS       0.050867
     35 H6           5.3320     0.8000     2.3690 hc         1 5VS       0.050867
     36 H7           4.1900    -0.4740     2.7740 hc         1 5VS       0.050867
     37 H8           3.8080     2.6390     2.3410 hc         1 5VS       0.050867
     38 H9           2.2100     2.5310     1.6120 hc         1 5VS       0.050867
     39 H10          2.6060     1.5290     3.0100 hc         1 5VS       0.050867
     40 H11          5.1420     1.6030    -0.0180 hn         1 5VS       0.321500
     41 H12         -0.9520     2.4090    -2.4450 ha         1 5VS       0.156000
     42 H13         -0.2080    -0.3780     0.7290 ha         1 5VS       0.160000
     43 H14          3.5370    -1.8000     0.9210 h1         1 5VS       0.051700
     44 H15          3.2180    -1.2920    -0.7330 h1         1 5VS       0.051700
     45 H16          1.3930    -2.2720    -1.8860 ha         1 5VS       0.135000
     46 H17         -1.5980    -4.4790     0.2340 ha         1 5VS       0.132000
     47 H18         -0.5190    -3.8680     2.3770 ha         1 5VS       0.133500
     48 H19         -1.6800     1.3140     2.0290 ha         1 5VS       0.154000
     49 H20         -5.7640     0.1820     2.7400 h4         1 5VS       0.026100
     50 H21         -4.8500    -0.4010    -1.9360 hn         1 5VS       0.367500
     51 C1           4.6250     0.0850     1.9470 c3         1 5VS      -0.103600
@<TRIPOS>BOND
     1     1     2 1   
     2     1    12 1   
     3     1    13 2   
     4     2     3 ar  
     5     2    16 ar  
     6     3    14 ar  
     7     3    30 1   
     8     4    14 ar  
     9     4    15 ar  
    10     4    22 1   
    11     5     7 ar  
    12     5    18 1   
    13     5    19 ar  
    14     6    19 ar  
    15     6    20 ar  
    16     6    31 1   
    17     7    21 ar  
    18     7    32 1   
    19     8    22 1   
    20     8    23 ar  
    21     8    26 ar  
    22     9    23 ar  
    23     9    24 ar  
    24     9    33 1   
    25    10    11 1   
    26    10    12 1   
    27    10    17 1   
    28    10    51 1   
    29    11    37 1   
    30    11    38 1   
    31    11    39 1   
    32    12    40 1   
    33    14    41 1   
    34    15    16 ar  
    35    15    42 1   
    36    16    17 1   
    37    17    18 1   
    38    18    43 1   
    39    18    44 1   
    40    19    45 1   
    41    20    21 ar  
    42    20    46 1   
    43    21    47 1   
    44    22    28 1   
    45    23    48 1   
    46    24    25 ar  
    47    24    49 1   
    48    25    26 ar  
    49    26    27 1   
    50    27    28 1   
    51    27    50 1   
    52    28    29 2   
    53    34    51 1   
    54    35    51 1   
    55    36    51 1   
@<TRIPOS>SUBSTRUCTURE
     1 5VS         1 TEMP              0 ****  ****    0 ROOT
