@<TRIPOS>MOLECULE
5VS
   51    55     1     0     0
SMALL
No Charge or Current Charge


@<TRIPOS>ATOM
      1 C5           3.2470     1.7940    -1.4130 c          1 5VS       0.577600
      2 C7           1.7880     1.5760    -1.2120 ca         1 5VS      -0.192600
      3 C8           0.8480     2.1420    -2.0960 ca         1 5VS      -0.035000
      4 C10         -0.9780     1.1590    -0.8120 ca         1 5VS       0.087600
      5 C15          1.3800    -2.1850     0.7320 ca         1 5VS      -0.098300
      6 C17          1.4510    -3.6900    -1.1910 ca         1 5VS      -0.114500
      7 C20          0.2030    -2.8250     1.1730 ca         1 5VS      -0.093000
      8 C22         -3.0030     0.6780     0.6610 ca         1 5VS      -0.033400
      9 C24         -3.5590     0.4610     2.9680 ca         1 5VS      -0.167000
     10 C2           3.6530     0.8290     0.8590 c6         1 5VS       0.385600
     11 C3           3.5040     2.0010     1.8620 c3         1 5VS      -0.103600
     12 N4           4.0710     1.3440    -0.4260 ns         1 5VS      -0.536900
     13 O6           3.7110     2.3310    -2.4080 o          1 5VS      -0.559000
     14 C9          -0.5240     1.9270    -1.9000 ca         1 5VS      -0.118000
     15 C11         -0.0240     0.5800     0.0480 ca         1 5VS      -0.125000
     16 C12          1.3610     0.7730    -0.1450 ca         1 5VS       0.277000
     17 N13          2.3300     0.1660     0.7000 nh         1 5VS      -0.766400
     18 C14          1.9740    -1.0250     1.5300 c3         1 5VS       0.229100
     19 C16          2.0020    -2.6280    -0.4530 ca         1 5VS      -0.093000
     20 C18          0.2750    -4.3190    -0.7490 ca         1 5VS      -0.104000
     21 C19         -0.3480    -3.8860     0.4340 ca         1 5VS      -0.114500
     22 N21         -2.3920     0.9410    -0.6180 n          1 5VS      -0.213200
     23 C23         -2.5740     0.7570     1.9940 ca         1 5VS      -0.068000
     24 C25         -4.8860     0.1370     2.5720 ca         1 5VS       0.337900
     25 N26         -5.2940     0.1040     1.2740 nb         1 5VS      -0.667000
     26 C27         -4.3240     0.3770     0.4000 ca         1 5VS       0.422900
     27 N28         -4.5140     0.4560    -0.9520 ns         1 5VS      -0.586900
     28 C30         -3.3770     0.7840    -1.6270 c          1 5VS       0.606000
     29 O31         -3.2600     0.8740    -2.8370 o          1 5VS      -0.534000
     30 H1           1.1780     2.7540    -2.9330 ha         1 5VS       0.143000
     31 H2           1.9350    -4.0240    -2.1070 ha         1 5VS       0.115500
     32 H3          -0.2880    -2.4980     2.0870 ha         1 5VS       0.117000
     33 H4          -3.3100     0.4950     4.0250 ha         1 5VS       0.128000
     34 H5           4.8540    -1.0190     0.7470 hc         1 5VS       0.050867
     35 H6           5.7660     0.3900     1.2980 hc         1 5VS       0.050867
     36 H7           4.6590    -0.4030     2.4040 hc         1 5VS       0.050867
     37 H8           4.4510     2.5380     1.9910 hc         1 5VS       0.050867
     38 H9           2.7570     2.7270     1.5210 hc         1 5VS       0.050867
     39 H10          3.1890     1.6410     2.8480 hc         1 5VS       0.050867
     40 H11          5.0600     1.4750    -0.5830 hn         1 5VS       0.321500
     41 H12         -1.2290     2.3890    -2.5840 ha         1 5VS       0.138000
     42 H13         -0.3620    -0.0640     0.8460 ha         1 5VS       0.142000
     43 H14          1.2590    -0.7140     2.3040 h1         1 5VS       0.051700
     44 H15          2.8290    -1.4310     2.0780 h1         1 5VS       0.051700
     45 H16          2.9100    -2.1430    -0.8050 ha         1 5VS       0.117000
     46 H17         -0.1520    -5.1400    -1.3200 ha         1 5VS       0.114000
     47 H18         -1.2580    -4.3730     0.7780 ha         1 5VS       0.115500
     48 H19         -1.5700     1.0580     2.2800 ha         1 5VS       0.136000
     49 H20         -5.6450    -0.0840     3.3220 h4         1 5VS       0.026100
     50 H21         -5.3940     0.2480    -1.4020 hn         1 5VS       0.481000
     51 C1           4.7920    -0.1100     1.3560 c3         1 5VS      -0.103600
@<TRIPOS>BOND
     1     1     2 1   
     2     1    12 1   
     3     1    13 2   
     4     2     3 ar  
     5     2    16 ar  
     6     3    14 ar  
     7     3    30 1   
     8     4    14 ar  
     9     4    15 ar  
    10     4    22 1   
    11     5     7 ar  
    12     5    18 1   
    13     5    19 ar  
    14     6    19 ar  
    15     6    20 ar  
    16     6    31 1   
    17     7    21 ar  
    18     7    32 1   
    19     8    22 1   
    20     8    23 ar  
    21     8    26 ar  
    22     9    23 ar  
    23     9    24 ar  
    24     9    33 1   
    25    10    11 1   
    26    10    12 1   
    27    10    17 1   
    28    10    51 1   
    29    11    37 1   
    30    11    38 1   
    31    11    39 1   
    32    12    40 1   
    33    14    41 1   
    34    15    16 ar  
    35    15    42 1   
    36    16    17 1   
    37    17    18 1   
    38    18    43 1   
    39    18    44 1   
    40    19    45 1   
    41    20    21 ar  
    42    20    46 1   
    43    21    47 1   
    44    22    28 1   
    45    23    48 1   
    46    24    25 ar  
    47    24    49 1   
    48    25    26 ar  
    49    26    27 1   
    50    27    28 1   
    51    27    50 1   
    52    28    29 2   
    53    34    51 1   
    54    35    51 1   
    55    36    51 1   
@<TRIPOS>SUBSTRUCTURE
     1 5VS         1 TEMP              0 ****  ****    0 ROOT
