@<TRIPOS>MOLECULE
5VT
   61    64     1     0     0
SMALL
bcc


@<TRIPOS>ATOM
      1 C2          -3.3950    -0.6040     0.0990 c3         1 5VT       0.107000
      2 C3          -1.1300    -1.3000     0.6950 c          1 5VT       0.669100
      3 C13          3.2440     1.4900     0.4240 c3         1 5VT       0.155300
      4 C14          4.7450     1.5810     0.4930 ca         1 5VT      -0.096300
      5 C15          7.5410     1.7720     0.7030 ca         1 5VT      -0.110000
      6 C16          6.7380     2.3820     1.6230 ca         1 5VT      -0.130000
      7 C17          5.3350     2.2820     1.5120 ca         1 5VT      -0.117000
      8 C18          6.9770     1.0390    -0.3680 ca         1 5VT      -0.041000
      9 C19          5.5640     0.9370    -0.4800 ca         1 5VT      -0.019000
     10 C20          5.0270     0.2050    -1.5680 ca         1 5VT      -0.112000
     11 C21          5.8470    -0.3890    -2.4890 ca         1 5VT      -0.129000
     12 C22          7.2480    -0.2910    -2.3720 ca         1 5VT      -0.125000
     13 C23          7.7980     0.4100    -1.3340 ca         1 5VT      -0.120000
     14 C24         -4.3620    -0.7700    -1.0690 c3         1 5VT      -0.041100
     15 C25         -5.6520    -0.0460    -0.8060 ca         1 5VT      -0.120300
     16 C26         -6.7400    -0.6950    -0.2370 ca         1 5VT      -0.085000
     17 C27         -8.0340     1.3340    -0.2250 ca         1 5VT       0.142100
     18 C28         -6.9490     2.0010    -0.7980 ca         1 5VT      -0.188000
     19 C29         -7.9240    -0.0250     0.0540 ca         1 5VT      -0.188000
     20 C30         -5.7820     1.3150    -1.0810 ca         1 5VT      -0.085000
     21 N1          -2.1600    -1.3130    -0.1580 ns         1 5VT      -0.568900
     22 C4           0.0440    -2.1850     0.2960 c5         1 5VT       0.051700
     23 N5           1.3070    -1.6000     0.6870 n          1 5VT      -0.491800
     24 C6           0.0180    -3.5090     1.0730 c5         1 5VT      -0.088400
     25 C7           2.1350    -2.4890     1.4860 c5         1 5VT       0.109000
     26 C8           1.4940    -3.8490     1.2450 c5         1 5VT      -0.092400
     27 O9          -1.1460    -0.6880     1.7520 o          1 5VT      -0.597100
     28 C10          1.6370    -0.3560     0.2620 c          1 5VT       0.800100
     29 O11          0.9270     0.2580    -0.5320 o          1 5VT      -0.652100
     30 N12          2.8010     0.1510     0.7470 ns         1 5VT      -0.583900
     31 O31         -9.1330     2.0760     0.0180 os         1 5VT      -0.317900
     32 C32        -10.2510     1.4500     0.6130 c3         1 5VT       0.125700
     33 H1          -3.1900     0.4590     0.2580 h1         1 5VT       0.056200
     34 H2          -3.8590    -0.9790     1.0150 h1         1 5VT       0.056200
     35 H3           2.8080     2.2280     1.1050 h1         1 5VT       0.061200
     36 H4           2.8900     1.7420    -0.5750 h1         1 5VT       0.061200
     37 H5           8.6200     1.8420     0.7810 ha         1 5VT       0.131000
     38 H6           7.1700     2.9410     2.4420 ha         1 5VT       0.133000
     39 H7           4.7140     2.7700     2.2530 ha         1 5VT       0.131000
     40 H8           3.9560     0.1130    -1.6820 ha         1 5VT       0.145000
     41 H9           5.4160    -0.9390    -3.3150 ha         1 5VT       0.131000
     42 H10          7.8840    -0.7680    -3.1060 ha         1 5VT       0.131000
     43 H11          8.8740     0.4950    -1.2380 ha         1 5VT       0.130000
     44 H12         -3.8940    -0.3890    -1.9810 hc         1 5VT       0.048200
     45 H13         -4.5550    -1.8340    -1.2310 hc         1 5VT       0.048200
     46 H14         -6.6750    -1.7530    -0.0130 ha         1 5VT       0.131000
     47 H15         -7.0310     3.0570    -1.0230 ha         1 5VT       0.140000
     48 H16         -8.7410    -0.5800     0.4950 ha         1 5VT       0.140000
     49 H17         -4.9530     1.8530    -1.5290 ha         1 5VT       0.131000
     50 H18         -2.0680    -1.8140    -1.0280 hn         1 5VT       0.312500
     51 H19          0.0190    -2.3790    -0.7830 h1         1 5VT       0.059700
     52 H20         -0.4430    -3.3620     2.0520 hc         1 5VT       0.061700
     53 H21         -0.5470    -4.2770     0.5470 hc         1 5VT       0.061700
     54 H22          3.1760    -2.4630     1.1590 h1         1 5VT       0.047700
     55 H23          2.1060    -2.2180     2.5470 h1         1 5VT       0.047700
     56 H24          1.6760    -4.5460     2.0620 hc         1 5VT       0.055200
     57 H25          1.8940    -4.2920     0.3310 hc         1 5VT       0.055200
     58 H26          3.2380    -0.2810     1.5450 hn         1 5VT       0.312500
     59 H27        -10.6590     0.6560    -0.0180 h1         1 5VT       0.040367
     60 H28        -10.0120     1.0310     1.5930 h1         1 5VT       0.040367
     61 H29        -11.0080     2.2200     0.7370 h1         1 5VT       0.040367
@<TRIPOS>BOND
     1     1    14 1   
     2     1    21 1   
     3     1    33 1   
     4     1    34 1   
     5     2    21 1   
     6     2    22 1   
     7     2    27 2   
     8     3     4 1   
     9     3    30 1   
    10     3    35 1   
    11     3    36 1   
    12     4     7 ar  
    13     4     9 ar  
    14     5     6 ar  
    15     5     8 ar  
    16     5    37 1   
    17     6     7 ar  
    18     6    38 1   
    19     7    39 1   
    20     8     9 ar  
    21     8    13 ar  
    22     9    10 ar  
    23    10    11 ar  
    24    10    40 1   
    25    11    12 ar  
    26    11    41 1   
    27    12    13 ar  
    28    12    42 1   
    29    13    43 1   
    30    14    15 1   
    31    14    44 1   
    32    14    45 1   
    33    15    16 ar  
    34    15    20 ar  
    35    16    19 ar  
    36    16    46 1   
    37    17    18 ar  
    38    17    19 ar  
    39    17    31 1   
    40    18    20 ar  
    41    18    47 1   
    42    19    48 1   
    43    20    49 1   
    44    21    50 1   
    45    22    23 1   
    46    22    24 1   
    47    22    51 1   
    48    23    25 1   
    49    23    28 1   
    50    24    26 1   
    51    24    52 1   
    52    24    53 1   
    53    25    26 1   
    54    25    54 1   
    55    25    55 1   
    56    26    56 1   
    57    26    57 1   
    58    28    29 2   
    59    28    30 1   
    60    30    58 1   
    61    31    32 1   
    62    32    59 1   
    63    32    60 1   
    64    32    61 1   
@<TRIPOS>SUBSTRUCTURE
     1 5VT         1 TEMP              0 ****  ****    0 ROOT
