@<TRIPOS>MOLECULE
5VT
   61    64     1     0     0
SMALL
No Charge or Current Charge


@<TRIPOS>ATOM
      1 C2          -3.6740    -0.3640    -0.0360 c3         1 5VT       0.107000
      2 C3          -1.2430    -0.8060     0.4150 c          1 5VT       0.602100
      3 C13          3.7070     1.5760    -0.0720 c3         1 5VT       0.155300
      4 C14          5.1610     1.5330     0.3920 ca         1 5VT      -0.096300
      5 C15          7.8200     1.5210     1.3480 ca         1 5VT      -0.092000
      6 C16          6.8300     2.2380     2.0340 ca         1 5VT      -0.112000
      7 C17          5.5100     2.2420     1.5600 ca         1 5VT      -0.099000
      8 C18          7.4920     0.8040     0.1830 ca         1 5VT      -0.041000
      9 C19          6.1610     0.8030    -0.3050 ca         1 5VT      -0.019000
     10 C20          5.8670     0.0660    -1.4770 ca         1 5VT      -0.094000
     11 C21          6.8770    -0.6480    -2.1450 ca         1 5VT      -0.111000
     12 C22          8.1910    -0.6380    -1.6550 ca         1 5VT      -0.107000
     13 C23          8.4980     0.0870    -0.4930 ca         1 5VT      -0.102000
     14 C24         -4.8250    -0.9630    -0.8650 c3         1 5VT      -0.041100
     15 C25         -6.1490    -0.2640    -0.5880 ca         1 5VT      -0.120300
     16 C26         -6.9900    -0.7190     0.4460 ca         1 5VT      -0.067000
     17 C27         -8.5990     1.0430    -0.0660 ca         1 5VT       0.142100
     18 C28         -7.7590     1.4970    -1.0950 ca         1 5VT      -0.170000
     19 C29         -8.2100    -0.0720     0.7080 ca         1 5VT      -0.170000
     20 C30         -6.5390     0.8490    -1.3570 ca         1 5VT      -0.067000
     21 N1          -2.4020    -1.0390    -0.2970 ns         1 5VT      -0.501900
     22 C4          -0.0990    -1.7180    -0.1440 c5         1 5VT       0.051700
     23 N5           1.2920    -1.2630     0.1430 n          1 5VT      -0.424800
     24 C6          -0.1420    -3.0770     0.6210 c5         1 5VT      -0.088400
     25 C7           2.1230    -2.2980     0.7960 c5         1 5VT       0.109000
     26 C8           1.3150    -3.5800     0.4810 c5         1 5VT      -0.092400
     27 O9          -1.1810    -0.0030     1.3390 o          1 5VT      -0.597100
     28 C10          1.7520     0.0180    -0.2000 c          1 5VT       0.666100
     29 O11          1.0720     0.8110    -0.8330 o          1 5VT      -0.652100
     30 N12          3.0250     0.3160     0.2070 ns         1 5VT      -0.516900
     31 O31         -9.7840     1.7190     0.1440 os         1 5VT      -0.341100
     32 C32        -10.7140     1.3350     1.1720 c3         1 5VT       0.148900
     33 H1          -3.5650     0.7020    -0.2760 h1         1 5VT       0.056200
     34 H2          -3.9120    -0.4520     1.0330 h1         1 5VT       0.056200
     35 H3           3.1710     2.3840     0.4440 h1         1 5VT       0.061200
     36 H4           3.6610     1.7880    -1.1480 h1         1 5VT       0.061200
     37 H5           8.8410     1.5230     1.7230 ha         1 5VT       0.113000
     38 H6           7.0860     2.7900     2.9360 ha         1 5VT       0.115000
     39 H7           4.7530     2.8010     2.1060 ha         1 5VT       0.113000
     40 H8           4.8610     0.0330    -1.8850 ha         1 5VT       0.127000
     41 H9           6.6380    -1.2110    -3.0450 ha         1 5VT       0.113000
     42 H10          8.9710    -1.1910    -2.1740 ha         1 5VT       0.113000
     43 H11          9.5190     0.0890    -0.1180 ha         1 5VT       0.112000
     44 H12         -4.5760    -0.8910    -1.9310 hc         1 5VT       0.048200
     45 H13         -4.9100    -2.0330    -0.6400 hc         1 5VT       0.048200
     46 H14         -6.6970    -1.5760     1.0490 ha         1 5VT       0.113000
     47 H15         -8.0540     2.3550    -1.6930 ha         1 5VT       0.122000
     48 H16         -8.8360    -0.4470     1.5120 ha         1 5VT       0.122000
     49 H17         -5.8970     1.2140    -2.1560 ha         1 5VT       0.113000
     50 H18         -2.3580    -1.7230    -1.0430 hn         1 5VT       0.312500
     51 H19         -0.2340    -1.8580    -1.2250 h1         1 5VT       0.059700
     52 H20         -0.4010    -2.9360     1.6780 hc         1 5VT       0.061700
     53 H21         -0.8740    -3.7740     0.1980 hc         1 5VT       0.061700
     54 H22          3.1390    -2.3530     0.3800 h1         1 5VT       0.047700
     55 H23          2.1910    -2.1160     1.8770 h1         1 5VT       0.047700
     56 H24          1.5500    -4.4020     1.1660 hc         1 5VT       0.055200
     57 H25          1.5150    -3.9330    -0.5380 hc         1 5VT       0.055200
     58 H26          3.5170    -0.3920     0.7320 hn         1 5VT       0.312500
     59 H27        -11.0710     0.3090     1.0120 h1         1 5VT       0.040367
     60 H28        -10.2470     1.3960     2.1630 h1         1 5VT       0.040367
     61 H29        -11.5850     2.0020     1.1650 h1         1 5VT       0.040367
@<TRIPOS>BOND
     1     1    14 1   
     2     1    21 1   
     3     1    33 1   
     4     1    34 1   
     5     2    21 1   
     6     2    22 1   
     7     2    27 2   
     8     3     4 1   
     9     3    30 1   
    10     3    35 1   
    11     3    36 1   
    12     4     7 ar  
    13     4     9 ar  
    14     5     6 ar  
    15     5     8 ar  
    16     5    37 1   
    17     6     7 ar  
    18     6    38 1   
    19     7    39 1   
    20     8     9 ar  
    21     8    13 ar  
    22     9    10 ar  
    23    10    11 ar  
    24    10    40 1   
    25    11    12 ar  
    26    11    41 1   
    27    12    13 ar  
    28    12    42 1   
    29    13    43 1   
    30    14    15 1   
    31    14    44 1   
    32    14    45 1   
    33    15    16 ar  
    34    15    20 ar  
    35    16    19 ar  
    36    16    46 1   
    37    17    18 ar  
    38    17    19 ar  
    39    17    31 1   
    40    18    20 ar  
    41    18    47 1   
    42    19    48 1   
    43    20    49 1   
    44    21    50 1   
    45    22    23 1   
    46    22    24 1   
    47    22    51 1   
    48    23    25 1   
    49    23    28 1   
    50    24    26 1   
    51    24    52 1   
    52    24    53 1   
    53    25    26 1   
    54    25    54 1   
    55    25    55 1   
    56    26    56 1   
    57    26    57 1   
    58    28    29 2   
    59    28    30 1   
    60    30    58 1   
    61    31    32 1   
    62    32    59 1   
    63    32    60 1   
    64    32    61 1   
@<TRIPOS>SUBSTRUCTURE
     1 5VT         1 TEMP              0 ****  ****    0 ROOT
