@<TRIPOS>MOLECULE
5VU
   28    29     1     0     0
SMALL
abcg2


@<TRIPOS>ATOM
      1 O01         -1.0160    -1.7700     0.5700 o          1 5VU      -0.628100
      2 C02         -1.3390    -0.6790     0.1170 c          1 5VU       0.665100
      3 N03         -0.4070     0.2340    -0.3310 ns         1 5VU      -0.167000
      4 C04          0.9700     0.0290    -0.2170 ca         1 5VU      -0.067000
      5 C05          1.6010    -1.1450    -0.6220 ca         1 5VU      -0.060000
      6 C06          2.9730    -1.3030    -0.5040 ca         1 5VU      -0.149000
      7 C07          3.7240    -0.2620     0.0040 ca         1 5VU       0.179000
      8 F08          5.0530    -0.4020     0.1150 f          1 5VU      -0.173000
      9 C09          3.1490     0.9300     0.4000 ca         1 5VU      -0.178000
     10 C10          1.7790     1.0420     0.2890 ca         1 5VU       0.150000
     11 F11          1.1970     2.1870     0.6760 f          1 5VU      -0.181000
     12 N12         -2.6220    -0.2850     0.0060 n          1 5VU      -0.435800
     13 C13         -3.7110    -1.1250     0.4910 c5         1 5VU       0.108500
     14 C14         -4.8990    -0.1710     0.5060 c5         1 5VU      -0.094400
     15 C15         -4.6000     0.7760    -0.6510 c5         1 5VU      -0.094400
     16 C16         -3.0910     0.9760    -0.5550 c5         1 5VU       0.108500
     17 H03         -0.7040     1.1780    -0.5180 hn         1 5VU       0.158000
     18 H05          1.0150    -1.9480    -1.0440 ha         1 5VU       0.143000
     19 H06          3.4470    -2.2220    -0.8200 ha         1 5VU       0.139000
     20 H09          3.7420     1.7440     0.7960 ha         1 5VU       0.149000
     21 H131        -3.8860    -1.9660    -0.1880 h1         1 5VU       0.050700
     22 H132        -3.4880    -1.5340     1.4760 h1         1 5VU       0.050700
     23 H161        -2.8500     1.8160     0.1060 h1         1 5VU       0.050700
     24 H162        -2.6450     1.1750    -1.5320 h1         1 5VU       0.050700
     25 H141        -5.8490    -0.6940     0.4000 hc         1 5VU       0.056200
     26 H142        -4.9250     0.3810     1.4480 hc         1 5VU       0.056200
     27 H151        -4.8540     0.3030    -1.6020 hc         1 5VU       0.056200
     28 H152        -5.1430     1.7180    -0.5920 hc         1 5VU       0.056200
@<TRIPOS>BOND
     1     1     2 2   
     2     2     3 1   
     3     2    12 1   
     4     3     4 1   
     5     3    17 1   
     6     4     5 ar  
     7     4    10 ar  
     8     5     6 ar  
     9     5    18 1   
    10     6     7 ar  
    11     6    19 1   
    12     7     8 1   
    13     7     9 ar  
    14     9    10 ar  
    15     9    20 1   
    16    10    11 1   
    17    12    13 1   
    18    12    16 1   
    19    13    14 1   
    20    13    21 1   
    21    13    22 1   
    22    14    15 1   
    23    14    25 1   
    24    14    26 1   
    25    15    16 1   
    26    15    27 1   
    27    15    28 1   
    28    16    23 1   
    29    16    24 1   
@<TRIPOS>SUBSTRUCTURE
     1 5VU         1 TEMP              0 ****  ****    0 ROOT
