@<TRIPOS>MOLECULE
5VU
   28    29     1     0     0
SMALL
No Charge or Current Charge


@<TRIPOS>ATOM
      1 O01         -1.2190    -2.1170     0.0750 o          1 5VU      -0.628100
      2 C02         -1.4080    -0.9100    -0.0050 c          1 5VU       0.665100
      3 N03         -0.3920     0.0340    -0.0780 ns         1 5VU      -0.167000
      4 C04          1.0300    -0.0720    -0.0870 ca         1 5VU      -0.067000
      5 C05          1.7190    -1.3070    -0.0240 ca         1 5VU      -0.060000
      6 C06          3.1270    -1.3320    -0.0390 ca         1 5VU      -0.149000
      7 C07          3.8530    -0.1360    -0.1150 ca         1 5VU       0.179000
      8 F08          5.2030    -0.1680    -0.1280 f          1 5VU      -0.173000
      9 C09          3.1840     1.0930    -0.1780 ca         1 5VU      -0.178000
     10 C10          1.7820     1.1210    -0.1640 ca         1 5VU       0.150000
     11 F11          1.1500     2.3150    -0.2260 f          1 5VU      -0.181000
     12 N12         -2.7130    -0.3830    -0.0270 n          1 5VU      -0.435800
     13 C13         -3.9160    -1.2360     0.0670 c5         1 5VU       0.108500
     14 C14         -5.0160    -0.1910     0.3840 c5         1 5VU      -0.094400
     15 C15         -4.5470     1.0220    -0.4570 c5         1 5VU      -0.094400
     16 C16         -3.0300     1.0600    -0.1400 c5         1 5VU       0.108500
     17 H03         -0.7240     0.9880    -0.1330 hn         1 5VU       0.158000
     18 H05          1.1890    -2.2520     0.0350 ha         1 5VU       0.143000
     19 H06          3.6550    -2.2810     0.0100 ha         1 5VU       0.139000
     20 H09          3.7490     2.0190    -0.2380 ha         1 5VU       0.149000
     21 H131        -4.1040    -1.7440    -0.8880 h1         1 5VU       0.050700
     22 H132        -3.8320    -1.9950     0.8570 h1         1 5VU       0.050700
     23 H161        -2.8300     1.5760     0.8100 h1         1 5VU       0.050700
     24 H162        -2.4630     1.5580    -0.9380 h1         1 5VU       0.050700
     25 H141        -6.0170    -0.5400     0.1090 hc         1 5VU       0.056200
     26 H142        -5.0330     0.0520     1.4530 hc         1 5VU       0.056200
     27 H151        -4.7220     0.8530    -1.5260 hc         1 5VU       0.056200
     28 H152        -5.0550     1.9540    -0.1840 hc         1 5VU       0.056200
@<TRIPOS>BOND
     1     1     2 2   
     2     2     3 1   
     3     2    12 1   
     4     3     4 1   
     5     3    17 1   
     6     4     5 ar  
     7     4    10 ar  
     8     5     6 ar  
     9     5    18 1   
    10     6     7 ar  
    11     6    19 1   
    12     7     8 1   
    13     7     9 ar  
    14     9    10 ar  
    15     9    20 1   
    16    10    11 1   
    17    12    13 1   
    18    12    16 1   
    19    13    14 1   
    20    13    21 1   
    21    13    22 1   
    22    14    15 1   
    23    14    25 1   
    24    14    26 1   
    25    15    16 1   
    26    15    27 1   
    27    15    28 1   
    28    16    23 1   
    29    16    24 1   
@<TRIPOS>SUBSTRUCTURE
     1 5VU         1 TEMP              0 ****  ****    0 ROOT
