@<TRIPOS>MOLECULE
5VV
   18    17     1     0     0
SMALL
No Charge or Current Charge


@<TRIPOS>ATOM
      1 N          -13.6100   -15.7780    37.8960 ns         1 5VV      -0.546900
      2 C9         -12.4270   -15.8670    37.2160 c          1 5VV       0.720000
      3 O10        -11.5970   -14.9870    37.3400 o          1 5VV      -0.730000
      4 O11        -12.2770   -16.8580    36.5310 o          1 5VV      -0.730000
      5 CA         -14.0360   -14.6620    38.7780 c3         1 5VV       0.013700
      6 CB         -15.0350   -13.7150    38.0600 c3         1 5VV      -0.164400
      7 CG         -14.3950   -12.9770    36.8810 c          1 5VV       0.606100
      8 ND2        -14.6490   -13.4760    35.6520 nt         1 5VV      -0.624000
      9 OD1        -13.7210   -11.9690    37.0110 o          1 5VV      -0.601100
     10 C          -14.6230   -15.2150    40.1060 c          1 5VV       0.644900
     11 O          -14.0190   -15.2020    41.1790 o          1 5VV      -0.593100
     12 H1         -14.2460   -16.5520    37.7530 hn         1 5VV       0.263500
     13 H3         -13.1550   -14.0730    39.0630 h1         1 5VV       0.051700
     14 H4         -15.3880   -12.9710    38.7840 hc         1 5VV       0.050700
     15 H5         -15.8770   -14.3240    37.7060 hc         1 5VV       0.050700
     16 H6         -14.2540   -13.0220    34.8420 hn         1 5VV       0.301000
     17 H7         -15.2030   -14.3130    35.5540 hn         1 5VV       0.301000
     18 H8         -15.6490   -15.6400    40.0340 h4         1 5VV      -0.014800
@<TRIPOS>BOND
     1     1     2 1   
     2     1     5 1   
     3     1    12 1   
     4     2     3 1   
     5     2     4 1   
     6     5     6 1   
     7     5    10 1   
     8     5    13 1   
     9     6     7 1   
    10     6    14 1   
    11     6    15 1   
    12     7     8 1   
    13     7     9 2   
    14     8    16 1   
    15     8    17 1   
    16    10    11 2   
    17    10    18 1   
@<TRIPOS>SUBSTRUCTURE
     1 5VV         1 TEMP              0 ****  ****    0 ROOT
