@<TRIPOS>MOLECULE
5VV
   18    17     1     0     0
SMALL
abcg2


@<TRIPOS>ATOM
      1 N          -13.2660   -15.6660    37.6470 ns         1 5VV      -0.546900
      2 C9         -12.2870   -16.5180    38.2000 c          1 5VV       0.720000
      3 O10        -12.1910   -16.4710    39.4510 o          1 5VV      -0.730000
      4 O11        -11.6520   -17.2410    37.4160 o          1 5VV      -0.730000
      5 CA         -13.7120   -14.5700    38.4640 c3         1 5VV       0.013700
      6 CB         -14.9230   -13.8770    37.8410 c3         1 5VV      -0.164400
      7 CG         -14.6190   -13.1770    36.5280 c          1 5VV       0.606100
      8 ND2        -15.6960   -12.9380    35.7640 nt         1 5VV      -0.624000
      9 OD1        -13.4900   -12.8370    36.2110 o          1 5VV      -0.601100
     10 C          -14.1670   -15.1170    39.7990 c          1 5VV       0.644900
     11 O          -14.1170   -14.4980    40.8360 o          1 5VV      -0.593100
     12 H1         -13.1290   -15.4520    36.6710 hn         1 5VV       0.263500
     13 H3         -12.9350   -13.8180    38.6540 h1         1 5VV       0.051700
     14 H4         -15.2960   -13.1120    38.5300 hc         1 5VV       0.050700
     15 H5         -15.7380   -14.5940    37.7060 hc         1 5VV       0.050700
     16 H6         -15.6050   -12.4220    34.9040 hn         1 5VV       0.301000
     17 H7         -16.6200   -13.2190    36.0430 hn         1 5VV       0.301000
     18 H8         -14.7180   -16.0730    39.7210 h4         1 5VV      -0.014800
@<TRIPOS>BOND
     1     1     2 1   
     2     1     5 1   
     3     1    12 1   
     4     2     3 1   
     5     2     4 1   
     6     5     6 1   
     7     5    10 1   
     8     5    13 1   
     9     6     7 1   
    10     6    14 1   
    11     6    15 1   
    12     7     8 1   
    13     7     9 2   
    14     8    16 1   
    15     8    17 1   
    16    10    11 2   
    17    10    18 1   
@<TRIPOS>SUBSTRUCTURE
     1 5VV         1 TEMP              0 ****  ****    0 ROOT
