@<TRIPOS>MOLECULE
5VW
   42    43     1     0     0
SMALL
No Charge or Current Charge


@<TRIPOS>ATOM
      1 OAL        -36.1770    17.3570   -60.3700 o          1 5VW      -0.712533
      2 SAI        -35.4670    17.0220   -61.6160 s6         1 5VW       1.524300
      3 OAJ        -34.0300    16.7570   -61.4380 o          1 5VW      -0.712533
      4 OAK        -35.7780    17.9200   -62.7430 o          1 5VW      -0.712533
      5 OAH        -36.0990    15.5370   -62.0800 os         1 5VW      -0.435000
      6 NAG        -37.5660    15.4550   -62.4140 n7         1 5VW      -0.537900
      7 CAE        -38.2020    14.2540   -61.8120 c6         1 5VW       0.134500
      8 CAF        -38.2880    14.3640   -60.2610 c6         1 5VW      -0.070400
      9 CB         -38.4680    12.9690   -59.6120 c6         1 5VW      -0.078400
     10 CAD        -37.5270    12.9190   -62.2670 c6         1 5VW       0.102000
     11 N          -36.6080    12.3590   -61.2440 n          1 5VW      -0.383800
     12 CAP        -35.2460    12.1490   -61.5230 c          1 5VW       0.621900
     13 OAQ        -34.4480    11.7410   -60.6850 o          1 5VW      -0.630100
     14 CA         -37.2240    12.0630   -59.9050 c6         1 5VW       0.037700
     15 C          -37.4630    10.5440   -59.6110 c          1 5VW       0.597100
     16 O          -36.7750     9.6620   -60.1140 o          1 5VW      -0.590100
     17 NAN        -38.4730    10.2420   -58.7020 ns         1 5VW      -0.382400
     18 OAR        -38.8100     8.8550   -58.4720 os         1 5VW      -0.251100
     19 CAS        -38.1090     8.4930   -57.2510 c5         1 5VW       0.107300
     20 CAW        -38.8600     9.1180   -56.0310 c5         1 5VW      -0.130400
     21 CAV        -38.8300     7.9550   -55.0150 c5         1 5VW       0.132800
     22 NAU        -39.1900     6.8030   -55.8630 n7         1 5VW      -0.835400
     23 CAT        -38.2860     6.9530   -57.0360 c5         1 5VW       0.135800
     24 H23        -37.6150    15.4200   -63.4420 hn         1 5VW       0.395000
     25 H4         -39.2340    14.2220   -62.1920 h1         1 5VW       0.043700
     26 H5         -37.3770    14.8250   -59.8580 hc         1 5VW       0.079700
     27 H6         -39.1180    15.0270   -59.9820 hc         1 5VW       0.079700
     28 H7         -38.6150    13.0750   -58.5280 hc         1 5VW       0.044200
     29 H8         -39.3810    12.5060   -60.0150 hc         1 5VW       0.044200
     30 H9         -38.3150    12.1750   -62.4500 h1         1 5VW       0.045700
     31 H10        -37.0020    13.0620   -63.2220 h1         1 5VW       0.045700
     32 H2         -34.9710    12.4030   -62.5650 h5         1 5VW       0.023200
     33 H12        -36.4770    12.3480   -59.1520 h1         1 5VW       0.085700
     34 H13        -39.0940    10.9410   -58.3060 hn         1 5VW       0.340500
     35 H14        -37.0460     8.7680   -57.3080 h1         1 5VW       0.085700
     36 H16        -38.3600    10.0140   -55.6460 hc         1 5VW       0.061700
     37 H15        -39.8910     9.3940   -56.2790 hc         1 5VW       0.061700
     38 H17        -39.5460     8.1020   -54.1930 h1         1 5VW       0.049200
     39 H18        -37.8290     7.8270   -54.5780 h1         1 5VW       0.049200
     40 HB6        -40.1560     6.9450   -56.1850 hn         1 5VW       0.403000
     41 H22        -38.6890     6.4480   -57.9260 h1         1 5VW       0.065700
     42 H21        -37.3080     6.4980   -56.8210 h1         1 5VW       0.065700
@<TRIPOS>BOND
     1     1     2 1   
     2     2     3 1   
     3     2     4 1   
     4     2     5 1   
     5     5     6 1   
     6     6     7 1   
     7     6    24 1   
     8     7     8 1   
     9     7    10 1   
    10     7    25 1   
    11     8     9 1   
    12     8    26 1   
    13     8    27 1   
    14     9    14 1   
    15     9    28 1   
    16     9    29 1   
    17    10    11 1   
    18    10    30 1   
    19    10    31 1   
    20    11    12 1   
    21    11    14 1   
    22    12    13 2   
    23    12    32 1   
    24    14    15 1   
    25    14    33 1   
    26    15    16 2   
    27    15    17 1   
    28    17    18 1   
    29    17    34 1   
    30    18    19 1   
    31    19    20 1   
    32    19    23 1   
    33    19    35 1   
    34    20    21 1   
    35    20    36 1   
    36    20    37 1   
    37    21    22 1   
    38    21    38 1   
    39    21    39 1   
    40    22    23 1   
    41    22    40 1   
    42    23    41 1   
    43    23    42 1   
@<TRIPOS>SUBSTRUCTURE
     1 5VW         1 TEMP              0 ****  ****    0 ROOT
