@<TRIPOS>MOLECULE
5VW
   42    43     1     0     0
SMALL
abcg2


@<TRIPOS>ATOM
      1 OAL        -37.2280    17.0730   -60.0390 o          1 5VW      -0.712533
      2 SAI        -35.9440    16.7810   -60.6600 s6         1 5VW       1.524300
      3 OAJ        -34.8830    16.4430   -59.7220 o          1 5VW      -0.712533
      4 OAK        -35.5620    17.7340   -61.6930 o          1 5VW      -0.712533
      5 OAH        -36.1020    15.3220   -61.4210 os         1 5VW      -0.435000
      6 NAG        -37.1180    15.3480   -62.4570 n7         1 5VW      -0.537900
      7 CAE        -37.9390    14.1420   -62.3210 c6         1 5VW       0.134500
      8 CAF        -38.8540    14.2450   -61.0910 c6         1 5VW      -0.070400
      9 CB         -39.1760    12.8690   -60.5170 c6         1 5VW      -0.078400
     10 CAD        -37.1630    12.8090   -62.3220 c6         1 5VW       0.102000
     11 N          -36.8210    12.3600   -60.9790 n          1 5VW      -0.383800
     12 CAP        -35.5550    12.1210   -60.6090 c          1 5VW       0.621900
     13 OAQ        -35.2170    11.7260   -59.4940 o          1 5VW      -0.630100
     14 CA         -37.8890    12.2100   -59.9990 c6         1 5VW       0.037700
     15 C          -38.1410    10.7320   -59.6840 c          1 5VW       0.597100
     16 O          -38.0680     9.8480   -60.5280 o          1 5VW      -0.590100
     17 NAN        -38.4810    10.5230   -58.3960 ns         1 5VW      -0.382400
     18 OAR        -38.9930     9.3080   -57.9920 os         1 5VW      -0.251100
     19 CAS        -37.9530     8.4020   -57.5110 c5         1 5VW       0.107300
     20 CAW        -37.2790     8.9110   -56.2310 c5         1 5VW      -0.130400
     21 CAV        -37.9830     8.1420   -55.0790 c5         1 5VW       0.132800
     22 NAU        -39.1210     7.4140   -55.6720 n7         1 5VW      -0.835400
     23 CAT        -38.7040     7.1530   -57.0560 c5         1 5VW       0.135800
     24 H23        -36.5700    15.2770   -63.3110 hn         1 5VW       0.395000
     25 H4         -38.5440    14.1490   -63.2320 h1         1 5VW       0.043700
     26 H5         -38.3480    14.8390   -60.3300 hc         1 5VW       0.079700
     27 H6         -39.7690    14.7750   -61.3550 hc         1 5VW       0.079700
     28 H7         -39.8750    12.9520   -59.6850 hc         1 5VW       0.044200
     29 H8         -39.6450    12.2330   -61.2720 hc         1 5VW       0.044200
     30 H9         -37.7750    12.0450   -62.8050 h1         1 5VW       0.045700
     31 H10        -36.2430    12.9020   -62.8970 h1         1 5VW       0.045700
     32 H2         -34.8250    12.3140   -61.4080 h5         1 5VW       0.023200
     33 H12        -37.5750    12.7210   -59.0860 h1         1 5VW       0.085700
     34 H13        -38.6290    11.2800   -57.7440 hn         1 5VW       0.340500
     35 H14        -37.2600     8.2260   -58.3330 h1         1 5VW       0.085700
     36 H16        -36.2100     8.6980   -56.2580 hc         1 5VW       0.061700
     37 H15        -37.3920     9.9900   -56.1360 hc         1 5VW       0.061700
     38 H17        -38.3320     8.7970   -54.2820 h1         1 5VW       0.049200
     39 H18        -37.2920     7.4180   -54.6390 h1         1 5VW       0.049200
     40 HB6        -39.9220     8.0370   -55.7000 hn         1 5VW       0.403000
     41 H22        -39.5550     6.9190   -57.6950 h1         1 5VW       0.065700
     42 H21        -38.0140     6.3050   -57.0730 h1         1 5VW       0.065700
@<TRIPOS>BOND
     1     1     2 1   
     2     2     3 1   
     3     2     4 1   
     4     2     5 1   
     5     5     6 1   
     6     6     7 1   
     7     6    24 1   
     8     7     8 1   
     9     7    10 1   
    10     7    25 1   
    11     8     9 1   
    12     8    26 1   
    13     8    27 1   
    14     9    14 1   
    15     9    28 1   
    16     9    29 1   
    17    10    11 1   
    18    10    30 1   
    19    10    31 1   
    20    11    12 1   
    21    11    14 1   
    22    12    13 2   
    23    12    32 1   
    24    14    15 1   
    25    14    33 1   
    26    15    16 2   
    27    15    17 1   
    28    17    18 1   
    29    17    34 1   
    30    18    19 1   
    31    19    20 1   
    32    19    23 1   
    33    19    35 1   
    34    20    21 1   
    35    20    36 1   
    36    20    37 1   
    37    21    22 1   
    38    21    38 1   
    39    21    39 1   
    40    22    23 1   
    41    22    40 1   
    42    23    41 1   
    43    23    42 1   
@<TRIPOS>SUBSTRUCTURE
     1 5VW         1 TEMP              0 ****  ****    0 ROOT
