@<TRIPOS>MOLECULE
5VX
   43    45     1     0     0
SMALL
bcc


@<TRIPOS>ATOM
      1 C1           9.0690    63.9980    28.6660 c3         1 5VX       0.088800
      2 C3          10.1210    66.1910    28.9010 c3         1 5VX       0.088800
      3 C6          12.0340    65.0310    30.7630 ca         1 5VX      -0.150600
      4 C7          11.5750    65.9770    31.6750 ca         1 5VX      -0.102000
      5 C8          12.4780    66.6580    32.4780 ca         1 5VX      -0.152000
      6 C10         14.3090    65.4600    31.4590 cp         1 5VX      -0.143500
      7 C11         13.3960    64.7730    30.6640 ca         1 5VX      -0.034000
      8 C12         15.7550    65.1780    31.3450 cp         1 5VX       0.490800
      9 C13         16.5860    65.1990    32.4630 ca         1 5VX      -0.262300
     10 C14         17.9320    64.9160    32.2990 ca         1 5VX      -0.093000
     11 C15         18.4190    64.6180    31.0390 ca         1 5VX      -0.224300
     12 C16         17.5060    64.6310    29.9930 ca         1 5VX       0.557800
     13 N18         17.9620    64.3990    28.6760 na         1 5VX       0.046600
     14 C21         18.1630    63.9950    26.5180 cc         1 5VX      -0.212900
     15 C22         17.9670    63.6590    25.0540 c          1 5VX       0.950200
     16 C25         17.3350    63.8330    27.6040 cd         1 5VX      -0.194600
     17 C26         16.0790    63.0320    27.6880 c3         1 5VX       0.768200
     18 N2          10.1010    64.7960    29.2950 n          1 5VX      -0.474800
     19 C4          11.0810    64.1790    29.9810 c          1 5VX       0.685700
     20 O5          11.1940    62.9600    30.0250 o          1 5VX      -0.589100
     21 C9          13.8360    66.4040    32.3710 ca         1 5VX      -0.103000
     22 N17         16.2260    64.9030    30.1300 nb         1 5VX      -0.681000
     23 N19         19.1470    64.9050    28.3340 nd         1 5VX      -0.552800
     24 C20         19.2840    64.6590    27.0530 cc         1 5VX       0.331200
     25 O23         19.0130    63.4170    24.4280 o          1 5VX      -0.806300
     26 O24         16.8020    63.7050    24.6250 o          1 5VX      -0.806300
     27 F27         15.9450    62.4360    28.8790 f          1 5VX      -0.232967
     28 F28         14.9780    63.7600    27.4740 f          1 5VX      -0.232967
     29 F29         16.0830    62.0530    26.7840 f          1 5VX      -0.232967
     30 H31          8.8550    63.1070    29.2500 h1         1 5VX       0.040033
     31 H32          8.1580    64.5900    28.5980 h1         1 5VX       0.040033
     32 H30          9.3530    63.6920    27.6550 h1         1 5VX       0.040033
     33 H35         11.0490    66.6730    29.1880 h1         1 5VX       0.040033
     34 H33         10.0340    66.2620    27.8150 h1         1 5VX       0.040033
     35 H34          9.2890    66.7400    29.3450 h1         1 5VX       0.040033
     36 H36         10.5150    66.1770    31.7700 ha         1 5VX       0.129000
     37 H37         12.1220    67.3920    33.1880 ha         1 5VX       0.125000
     38 H39         13.7520    64.0230    29.9710 ha         1 5VX       0.178000
     39 H40         16.1880    65.4100    33.4460 ha         1 5VX       0.135000
     40 H41         18.5960    64.9120    33.1520 ha         1 5VX       0.130000
     41 H42         19.4600    64.3800    30.8750 ha         1 5VX       0.166000
     42 H38         14.5300    66.9590    32.9900 ha         1 5VX       0.129000
     43 H43         20.1710    64.9800    26.5290 h4         1 5VX       0.045100
@<TRIPOS>BOND
     1     1    18 1   
     2     1    30 1   
     3     1    31 1   
     4     1    32 1   
     5     2    18 1   
     6     2    33 1   
     7     2    34 1   
     8     2    35 1   
     9     3     4 ar  
    10     3     7 ar  
    11     3    19 1   
    12     4     5 ar  
    13     4    36 1   
    14     5    21 ar  
    15     5    37 1   
    16     6     7 ar  
    17     6     8 1   
    18     6    21 ar  
    19     7    38 1   
    20     8     9 ar  
    21     8    22 ar  
    22     9    10 ar  
    23     9    39 1   
    24    10    11 ar  
    25    10    40 1   
    26    11    12 ar  
    27    11    41 1   
    28    12    13 1   
    29    12    22 ar  
    30    13    16 1   
    31    13    23 1   
    32    14    15 1   
    33    14    16 2   
    34    14    24 1   
    35    15    25 1   
    36    15    26 1   
    37    16    17 1   
    38    17    27 1   
    39    17    28 1   
    40    17    29 1   
    41    18    19 1   
    42    19    20 2   
    43    21    42 1   
    44    23    24 2   
    45    24    43 1   
@<TRIPOS>SUBSTRUCTURE
     1 5VX         1 TEMP              0 ****  ****    0 ROOT
