@<TRIPOS>MOLECULE
5VX
   43    45     1     0     0
SMALL
No Charge or Current Charge


@<TRIPOS>ATOM
      1 C1           8.6250    64.7990    28.4050 c3         1 5VX       0.088800
      2 C3           9.5210    66.8370    29.5560 c3         1 5VX       0.088800
      3 C6          11.8260    65.1760    30.5700 ca         1 5VX      -0.150600
      4 C7          11.3590    65.7470    31.7750 ca         1 5VX      -0.084000
      5 C8          12.2660    66.1440    32.7680 ca         1 5VX      -0.134000
      6 C10         14.1540    65.3660    31.4000 cp         1 5VX      -0.143500
      7 C11         13.2140    64.9770    30.4060 ca         1 5VX      -0.016000
      8 C12         15.6320    65.1570    31.1970 cp         1 5VX       0.425500
      9 C13         16.5430    65.0670    32.2770 ca         1 5VX      -0.179000
     10 C14         17.9060    64.8670    32.0250 ca         1 5VX      -0.075000
     11 C15         18.3180    64.7530    30.6910 ca         1 5VX      -0.141000
     12 C16         17.3720    64.8330    29.6470 ca         1 5VX       0.492500
     13 N18         17.8790    64.7060    28.3380 na         1 5VX       0.097300
     14 C21         18.4620    63.7200    26.4930 cc         1 5VX      -0.147600
     15 C22         18.7640    62.8250    25.3440 c          1 5VX       0.739600
     16 C25         17.9260    63.4250    27.7340 cd         1 5VX      -0.245300
     17 C26         17.4870    62.0790    28.3170 c3         1 5VX       0.404300
     18 N2           9.6440    65.3820    29.3050 n          1 5VX      -0.407800
     19 C4          10.8820    64.7160    29.4770 c          1 5VX       0.618700
     20 O5          11.1550    63.7290    28.8030 o          1 5VX      -0.589100
     21 C9          13.6450    65.9630    32.5830 ca         1 5VX      -0.085000
     22 N17         16.0550    65.0390    29.9200 nb         1 5VX      -0.681000
     23 N19         18.3680    65.7470    27.5580 nd         1 5VX      -0.552800
     24 C20         18.7020    65.1050    26.4580 cc         1 5VX       0.265900
     25 O23         19.2480    63.3260    24.3390 o          1 5VX      -0.701000
     26 O24         18.5210    61.6300    25.4210 o          1 5VX      -0.701000
     27 F27         17.0640    62.1280    29.6000 f          1 5VX      -0.111667
     28 F28         16.4680    61.5450    27.6060 f          1 5VX      -0.111667
     29 F29         18.4990    61.1830    28.3000 f          1 5VX      -0.111667
     30 H31          8.4800    63.7370    28.6420 h1         1 5VX       0.040033
     31 H32          7.6670    65.3190    28.5310 h1         1 5VX       0.040033
     32 H30          8.9520    64.8950    27.3620 h1         1 5VX       0.040033
     33 H35         10.5120    67.3010    29.6470 h1         1 5VX       0.040033
     34 H33          8.9940    67.3190    28.7230 h1         1 5VX       0.040033
     35 H34          8.9520    67.0080    30.4780 h1         1 5VX       0.040033
     36 H36         10.2940    65.8650    31.9590 ha         1 5VX       0.111000
     37 H37         11.8980    66.5900    33.6890 ha         1 5VX       0.107000
     38 H39         13.5690    64.5130    29.4870 ha         1 5VX       0.160000
     39 H40         16.1960    65.1380    33.3030 ha         1 5VX       0.117000
     40 H41         18.6230    64.7960    32.8410 ha         1 5VX       0.112000
     41 H42         19.3670    64.5960    30.4550 ha         1 5VX       0.148000
     42 H38         14.3180    66.2990    33.3670 ha         1 5VX       0.111000
     43 H43         19.1200    65.6750    25.6380 h4         1 5VX       0.045100
@<TRIPOS>BOND
     1     1    18 1   
     2     1    30 1   
     3     1    31 1   
     4     1    32 1   
     5     2    18 1   
     6     2    33 1   
     7     2    34 1   
     8     2    35 1   
     9     3     4 ar  
    10     3     7 ar  
    11     3    19 1   
    12     4     5 ar  
    13     4    36 1   
    14     5    21 ar  
    15     5    37 1   
    16     6     7 ar  
    17     6     8 1   
    18     6    21 ar  
    19     7    38 1   
    20     8     9 ar  
    21     8    22 ar  
    22     9    10 ar  
    23     9    39 1   
    24    10    11 ar  
    25    10    40 1   
    26    11    12 ar  
    27    11    41 1   
    28    12    13 1   
    29    12    22 ar  
    30    13    16 1   
    31    13    23 1   
    32    14    15 1   
    33    14    16 2   
    34    14    24 1   
    35    15    25 1   
    36    15    26 1   
    37    16    17 1   
    38    17    27 1   
    39    17    28 1   
    40    17    29 1   
    41    18    19 1   
    42    19    20 2   
    43    21    42 1   
    44    23    24 2   
    45    24    43 1   
@<TRIPOS>SUBSTRUCTURE
     1 5VX         1 TEMP              0 ****  ****    0 ROOT
