@<TRIPOS>MOLECULE
5VY
   71    74     1     0     0
SMALL
abcg2


@<TRIPOS>ATOM
      1 C10         63.6600    81.4890    81.3790 ca         1 5VY       0.305000
      2 C13         61.6350    84.5640    82.1090 c6         1 5VY       0.158800
      3 C15         61.1350    85.4050    84.3300 c3         1 5VY       0.155100
      4 C17         63.9650    83.5150    82.7830 c6         1 5VY       0.217300
      5 C21         63.1690    76.4470    77.1230 ca         1 5VY       0.419900
      6 C24         60.4570    78.4410    75.8890 ca         1 5VY      -0.174000
      7 C28         56.8900    78.6820    73.9570 c3         1 5VY      -0.268000
      8 C02         63.9620    75.3500    76.7170 ca         1 5VY      -0.296300
      9 C03         65.1720    75.2440    77.3760 ca         1 5VY       0.170900
     10 N04         65.6050    76.0830    78.3230 nb         1 5VY      -0.269000
     11 C05         64.7660    77.0920    78.6230 ca         1 5VY       0.415900
     12 N06         65.2170    77.9520    79.5850 nu         1 5VY      -0.926900
     13 C07         64.6450    79.1100    80.1380 ca         1 5VY       0.264000
     14 C08         63.4430    79.6900    79.7300 ca         1 5VY      -0.107000
     15 C09         62.9700    80.8500    80.3330 ca         1 5VY      -0.158500
     16 N11         63.1360    82.6180    81.9950 nh         1 5VY      -0.805400
     17 C12         61.9840    83.2710    81.3780 c6         1 5VY       0.217300
     18 N14         61.7550    84.3550    83.5430 n3         1 5VY      -0.715600
     19 C16         63.1570    84.1510    83.9210 c6         1 5VY       0.158800
     20 C18         64.8750    80.8950    81.7760 ca         1 5VY      -0.158500
     21 C19         65.3450    79.7410    81.1740 ca         1 5VY      -0.107000
     22 N20         63.5750    77.3020    78.0620 nb         1 5VY      -0.299000
     23 C23         61.0280    77.6720    76.9010 ca         1 5VY       0.325000
     24 C25         59.5000    79.4030    76.2050 ca         1 5VY       0.301000
     25 N26         58.9130    80.2290    75.2130 nu         1 5VY      -0.899100
     26 S27         58.3550    79.7630    73.7270 s6         1 5VY       1.194100
     27 C29         57.3110    77.4010    74.6800 c3         1 5VY      -0.081433
     28 C30         55.8460    79.4540    74.7630 c3         1 5VY      -0.081433
     29 C31         56.3780    78.3660    72.5470 c3         1 5VY      -0.081433
     30 O32         59.3960    78.9970    73.0800 o          1 5VY      -0.532000
     31 O33         57.9190    80.9990    73.1140 o          1 5VY      -0.532000
     32 C34         59.1430    79.6220    77.5350 ca         1 5VY      -0.171000
     33 C35         59.7370    78.8660    78.5370 ca         1 5VY      -0.073000
     34 C36         60.6650    77.8810    78.2330 ca         1 5VY      -0.120000
     35 H131        62.2680    85.3960    81.7590 h1         1 5VY       0.037700
     36 H132        60.6040    84.8300    81.8720 h1         1 5VY       0.037700
     37 H151        61.2260    85.1690    85.3920 h1         1 5VY       0.031700
     38 H152        61.6010    86.3920    84.1620 h1         1 5VY       0.031700
     39 H153        60.0750    85.4780    84.0820 h1         1 5VY       0.031700
     40 H171        64.7990    82.9770    83.2190 h1         1 5VY       0.041450
     41 H172        64.3930    84.2980    82.1420 h1         1 5VY       0.041450
     42 H241        60.7590    78.2880    74.8640 ha         1 5VY       0.151000
     43 H011        63.3700    74.8500    74.6990 hc         1 5VY       0.038700
     44 H012        64.2690    73.5900    75.5430 hc         1 5VY       0.038700
     45 H013        62.5750    73.8920    75.9430 hc         1 5VY       0.038700
     46 H031        65.8370    74.4210    77.1280 h4         1 5VY       0.019100
     47 H061        66.1200    77.6950    79.9530 hn         1 5VY       0.508000
     48 H081        62.8720    79.2380    78.9390 ha         1 5VY       0.128500
     49 H091        62.0350    81.2500    79.9720 ha         1 5VY       0.111000
     50 H121        61.1270    82.5930    81.4220 h1         1 5VY       0.041450
     51 H122        62.1740    83.4930    80.3180 h1         1 5VY       0.041450
     52 H161        63.1890    83.5170    84.8110 h1         1 5VY       0.037700
     53 H162        63.6410    85.1060    84.1800 h1         1 5VY       0.037700
     54 H181        65.4680    81.3210    82.5700 ha         1 5VY       0.111000
     55 H191        66.2840    79.3180    81.5140 ha         1 5VY       0.128500
     56 H221        61.7790    76.2040    75.6630 hn         1 5VY       0.506000
     57 H261        58.3640    80.9980    75.5770 hn         1 5VY       0.495000
     58 H291        56.4410    76.7430    74.7230 hc         1 5VY       0.052144
     59 H292        58.1080    76.8830    74.1490 hc         1 5VY       0.052144
     60 H293        57.6330    77.5980    75.7010 hc         1 5VY       0.052144
     61 H301        54.9610    78.8240    74.8610 hc         1 5VY       0.052144
     62 H302        56.2050    79.6880    75.7650 hc         1 5VY       0.052144
     63 H303        55.5570    80.3760    74.2620 hc         1 5VY       0.052144
     64 H311        55.4980    77.7290    72.6450 hc         1 5VY       0.052144
     65 H312        56.0880    79.2720    72.0150 hc         1 5VY       0.052144
     66 H313        57.1250    77.8310    71.9620 hc         1 5VY       0.052144
     67 H341        58.4010    80.3730    77.7760 ha         1 5VY       0.114000
     68 H351        59.4570    79.0360    79.5690 ha         1 5VY       0.121000
     69 H361        61.1090    77.2830    79.0130 ha         1 5VY       0.139000
     70 N22         61.9470    76.6650    76.5430 nu         1 5VY      -0.955900
     71 C01         63.5200    74.3710    75.6720 c3         1 5VY      -0.020800
@<TRIPOS>BOND
     1     1    15 ar  
     2     1    16 1   
     3     1    20 ar  
     4     2    17 1   
     5     2    18 1   
     6     2    35 1   
     7     2    36 1   
     8     3    18 1   
     9     3    37 1   
    10     3    38 1   
    11     3    39 1   
    12     4    16 1   
    13     4    19 1   
    14     4    40 1   
    15     4    41 1   
    16     5     8 ar  
    17     5    22 ar  
    18     5    70 1   
    19     6    23 ar  
    20     6    24 ar  
    21     6    42 1   
    22     7    26 1   
    23     7    27 1   
    24     7    28 1   
    25     7    29 1   
    26     8     9 ar  
    27     8    71 1   
    28     9    10 ar  
    29     9    46 1   
    30    10    11 ar  
    31    11    12 1   
    32    11    22 ar  
    33    12    13 1   
    34    12    47 1   
    35    13    14 ar  
    36    13    21 ar  
    37    14    15 ar  
    38    14    48 1   
    39    15    49 1   
    40    16    17 1   
    41    17    50 1   
    42    17    51 1   
    43    18    19 1   
    44    19    52 1   
    45    19    53 1   
    46    20    21 ar  
    47    20    54 1   
    48    21    55 1   
    49    23    34 ar  
    50    23    70 1   
    51    24    25 1   
    52    24    32 ar  
    53    25    26 1   
    54    25    57 1   
    55    26    30 2   
    56    26    31 2   
    57    27    58 1   
    58    27    59 1   
    59    27    60 1   
    60    28    61 1   
    61    28    62 1   
    62    28    63 1   
    63    29    64 1   
    64    29    65 1   
    65    29    66 1   
    66    32    33 ar  
    67    32    67 1   
    68    33    34 ar  
    69    33    68 1   
    70    34    69 1   
    71    43    71 1   
    72    44    71 1   
    73    45    71 1   
    74    56    70 1   
@<TRIPOS>SUBSTRUCTURE
     1 5VY         1 TEMP              0 ****  ****    0 ROOT
