@<TRIPOS>MOLECULE
5VY
   71    74     1     0     0
SMALL
No Charge or Current Charge


@<TRIPOS>ATOM
      1 C10         63.6750    81.4220    81.7330 ca         1 5VY       0.305000
      2 C13         61.6990    84.6170    82.5870 c6         1 5VY       0.158800
      3 C15         61.9880    86.3030    84.3780 c3         1 5VY       0.155100
      4 C17         63.7340    82.8920    83.7870 c6         1 5VY       0.217300
      5 C21         63.1780    76.7430    77.0140 ca         1 5VY       0.419900
      6 C24         60.3800    78.6200    75.4410 ca         1 5VY      -0.174000
      7 C28         56.8200    78.2250    73.6810 c3         1 5VY      -0.268000
      8 C02         63.9350    75.6240    76.6230 ca         1 5VY      -0.296300
      9 C03         65.1050    75.3660    77.3590 ca         1 5VY       0.170900
     10 N04         65.4890    76.1560    78.3770 nb         1 5VY      -0.269000
     11 C05         64.6910    77.1960    78.6620 ca         1 5VY       0.415900
     12 N06         65.1580    78.0170    79.6800 nu         1 5VY      -0.926900
     13 C07         64.6440    79.1370    80.3470 ca         1 5VY       0.264000
     14 C08         63.2640    79.3160    80.5580 ca         1 5VY      -0.107000
     15 C09         62.7830    80.4500    81.2390 ca         1 5VY      -0.158500
     16 N11         63.2130    82.5700    82.4180 nh         1 5VY      -0.805400
     17 C12         61.8350    83.1120    82.1810 c6         1 5VY       0.217300
     18 N14         62.1560    84.8870    83.9860 n3         1 5VY      -0.715600
     19 C16         63.5590    84.4020    84.1600 c6         1 5VY       0.158800
     20 C18         65.0560    81.2320    81.5370 ca         1 5VY      -0.158500
     21 C19         65.5360    80.0970    80.8550 ca         1 5VY      -0.107000
     22 N20         63.5600    77.5380    78.0260 nb         1 5VY      -0.299000
     23 C23         61.0010    78.0090    76.5390 ca         1 5VY       0.325000
     24 C25         59.3260    79.5290    75.6300 ca         1 5VY       0.301000
     25 N26         58.6960    80.1610    74.5670 nu         1 5VY      -0.899100
     26 S27         58.0880    79.4770    73.1740 s6         1 5VY       1.194100
     27 C29         57.4750    77.0230    74.4260 c3         1 5VY      -0.081433
     28 C30         55.7530    78.8850    74.6030 c3         1 5VY      -0.081433
     29 C31         56.1230    77.6920    72.3950 c3         1 5VY      -0.081433
     30 O32         59.2110    78.8070    72.5140 o          1 5VY      -0.532000
     31 O33         57.4100    80.5900    72.5060 o          1 5VY      -0.532000
     32 C34         58.9060    79.8380    76.9330 ca         1 5VY      -0.171000
     33 C35         59.5070    79.2160    78.0400 ca         1 5VY      -0.073000
     34 C36         60.5470    78.2950    77.8380 ca         1 5VY      -0.120000
     35 H131        62.2870    85.2200    81.8790 h1         1 5VY       0.037700
     36 H132        60.6480    84.9170    82.4660 h1         1 5VY       0.037700
     37 H151        62.2890    86.4530    85.4230 h1         1 5VY       0.031700
     38 H152        62.5990    86.9610    83.7450 h1         1 5VY       0.031700
     39 H153        60.9380    86.6100    84.2800 h1         1 5VY       0.031700
     40 H171        63.2010    82.2830    84.5330 h1         1 5VY       0.041450
     41 H172        64.8000    82.6390    83.8690 h1         1 5VY       0.041450
     42 H241        60.7390    78.4010    74.4430 ha         1 5VY       0.151000
     43 H011        63.5600    75.2540    74.5090 hc         1 5VY       0.038700
     44 H012        64.2090    73.8550    75.3720 hc         1 5VY       0.038700
     45 H013        62.5200    74.3190    75.6020 hc         1 5VY       0.038700
     46 H031        65.7510    74.5210    77.1260 h4         1 5VY       0.019100
     47 H061        66.1280    77.8080    79.9150 hn         1 5VY       0.508000
     48 H081        62.5590    78.5670    80.2160 ha         1 5VY       0.128500
     49 H091        61.7130    80.5540    81.3930 ha         1 5VY       0.111000
     50 H121        61.1030    82.5260    82.7570 h1         1 5VY       0.041450
     51 H122        61.5670    83.0180    81.1180 h1         1 5VY       0.041450
     52 H161        63.8830    84.5420    85.2020 h1         1 5VY       0.037700
     53 H162        64.2410    84.9940    83.5320 h1         1 5VY       0.037700
     54 H181        65.7620    81.9720    81.9010 ha         1 5VY       0.111000
     55 H191        66.6060    79.9750    80.7100 ha         1 5VY       0.128500
     56 H221        61.9960    76.6570    75.3930 hn         1 5VY       0.506000
     57 H261        57.9990    80.8500    74.8120 hn         1 5VY       0.495000
     58 H291        56.7370    76.2310    74.6060 hc         1 5VY       0.052144
     59 H292        58.2930    76.5850    73.8400 hc         1 5VY       0.052144
     60 H293        57.8710    77.3170    75.4040 hc         1 5VY       0.052144
     61 H301        54.9690    78.1650    74.8680 hc         1 5VY       0.052144
     62 H302        56.1980    79.2460    75.5380 hc         1 5VY       0.052144
     63 H303        55.2680    79.7350    74.1060 hc         1 5VY       0.052144
     64 H311        55.3570    76.9470    72.6420 hc         1 5VY       0.052144
     65 H312        55.6310    78.5030    71.8430 hc         1 5VY       0.052144
     66 H313        56.8470    77.2160    71.7210 hc         1 5VY       0.052144
     67 H341        58.1000    80.5490    77.0940 ha         1 5VY       0.114000
     68 H351        59.1640    79.4410    79.0480 ha         1 5VY       0.121000
     69 H361        60.9880    77.7930    78.6920 ha         1 5VY       0.139000
     70 N22         62.0350    77.0990    76.3080 nu         1 5VY      -0.955900
     71 C01         63.5330    74.7150    75.4630 c3         1 5VY      -0.020800
@<TRIPOS>BOND
     1     1    15 ar  
     2     1    16 1   
     3     1    20 ar  
     4     2    17 1   
     5     2    18 1   
     6     2    35 1   
     7     2    36 1   
     8     3    18 1   
     9     3    37 1   
    10     3    38 1   
    11     3    39 1   
    12     4    16 1   
    13     4    19 1   
    14     4    40 1   
    15     4    41 1   
    16     5     8 ar  
    17     5    22 ar  
    18     5    70 1   
    19     6    23 ar  
    20     6    24 ar  
    21     6    42 1   
    22     7    26 1   
    23     7    27 1   
    24     7    28 1   
    25     7    29 1   
    26     8     9 ar  
    27     8    71 1   
    28     9    10 ar  
    29     9    46 1   
    30    10    11 ar  
    31    11    12 1   
    32    11    22 ar  
    33    12    13 1   
    34    12    47 1   
    35    13    14 ar  
    36    13    21 ar  
    37    14    15 ar  
    38    14    48 1   
    39    15    49 1   
    40    16    17 1   
    41    17    50 1   
    42    17    51 1   
    43    18    19 1   
    44    19    52 1   
    45    19    53 1   
    46    20    21 ar  
    47    20    54 1   
    48    21    55 1   
    49    23    34 ar  
    50    23    70 1   
    51    24    25 1   
    52    24    32 ar  
    53    25    26 1   
    54    25    57 1   
    55    26    30 2   
    56    26    31 2   
    57    27    58 1   
    58    27    59 1   
    59    27    60 1   
    60    28    61 1   
    61    28    62 1   
    62    28    63 1   
    63    29    64 1   
    64    29    65 1   
    65    29    66 1   
    66    32    33 ar  
    67    32    67 1   
    68    33    34 ar  
    69    33    68 1   
    70    34    69 1   
    71    43    71 1   
    72    44    71 1   
    73    45    71 1   
    74    56    70 1   
@<TRIPOS>SUBSTRUCTURE
     1 5VY         1 TEMP              0 ****  ****    0 ROOT
