@<TRIPOS>MOLECULE
5W0
   71    74     1     0     0
SMALL
No Charge or Current Charge


@<TRIPOS>ATOM
      1 C10         -4.3290   -13.9740    -8.7400 ca         1 5W0      -0.165000
      2 N12         -3.8830   -12.8090    -6.6780 nu         1 5W0      -0.929900
      3 C13         -3.4230   -11.7690    -5.8830 ca         1 5W0       0.412900
      4 C15         -3.7770   -10.5040    -4.0140 ca         1 5W0       0.170900
      5 C20          0.1530    -9.5330    -6.8620 ca         1 5W0       0.320000
      6 C21          0.6380   -10.8160    -7.1700 ca         1 5W0      -0.124000
      7 C22          1.6240   -10.9830    -8.1540 ca         1 5W0      -0.066000
      8 C24          1.6940    -8.5700    -8.4870 ca         1 5W0       0.296000
      9 N02         -1.2610   -16.6850   -13.9470 n3         1 5W0      -0.721600
     10 C03         -0.4390   -15.6080   -13.3110 c6         1 5W0       0.160300
     11 C04         -1.2850   -14.6590   -12.4020 c6         1 5W0       0.184800
     12 N05         -2.0850   -15.4080   -11.3800 nh         1 5W0      -0.763400
     13 C06         -2.8680   -16.5380   -11.9750 c6         1 5W0       0.184800
     14 C07         -1.9940   -17.4520   -12.8940 c6         1 5W0       0.160300
     15 C08         -2.5150   -14.7560   -10.1900 ca         1 5W0       0.204000
     16 C09         -3.8920   -14.6210    -9.9110 ca         1 5W0      -0.107000
     17 C11         -3.4060   -13.4410    -7.8280 ca         1 5W0       0.323000
     18 N14         -4.1690   -11.5260    -4.7950 nb         1 5W0      -0.266000
     19 C16         -2.6470    -9.7260    -4.3240 ca         1 5W0      -0.289300
     20 C18         -1.9370   -10.0810    -5.4850 ca         1 5W0       0.419900
     21 N19         -0.8340    -9.3400    -5.8920 nu         1 5W0      -0.950900
     22 C23          2.1430    -9.8590    -8.8160 ca         1 5W0      -0.164000
     23 N25          2.2430    -7.4870    -9.1600 nu         1 5W0      -0.893100
     24 S26          2.8330    -6.0660    -8.5220 s6         1 5W0       1.190100
     25 O27          1.7270    -5.4450    -7.7890 o          1 5W0      -0.532000
     26 O28          3.4160    -5.3790    -9.6760 o          1 5W0      -0.532000
     27 C29          4.1930    -6.5110    -7.3450 c3         1 5W0      -0.268000
     28 C30          4.8680    -5.1940    -6.8620 c3         1 5W0      -0.081100
     29 C31          3.6420    -7.2730    -6.1020 c3         1 5W0      -0.081100
     30 C32          5.2560    -7.3940    -8.0630 c3         1 5W0      -0.081100
     31 C33          0.6920    -8.4160    -7.5140 ca         1 5W0      -0.170000
     32 N34         -2.3270   -11.0980    -6.2700 nb         1 5W0      -0.293000
     33 C35         -2.0350   -13.5890    -8.0810 ca         1 5W0      -0.162000
     34 C36         -1.5910   -14.2310    -9.2470 ca         1 5W0       0.170000
     35 F37         -0.2540   -14.3620    -9.4360 f          1 5W0      -0.182000
     36 H101        -5.3950   -13.8760    -8.5520 ha         1 5W0       0.115000
     37 H121        -4.8300   -13.0880    -6.4250 hn         1 5W0       0.511000
     38 H151        -4.3830   -10.3030    -3.1310 h4         1 5W0       0.022100
     39 H171        -1.1970    -8.6730    -3.0830 hc         1 5W0       0.041033
     40 H172        -2.3210    -7.6050    -3.9480 hc         1 5W0       0.041033
     41 H173        -2.8650    -8.5050    -2.5270 hc         1 5W0       0.041033
     42 H211         0.2620   -11.6820    -6.6370 ha         1 5W0       0.138000
     43 H221         1.9900   -11.9790    -8.3970 ha         1 5W0       0.124000
     44 H011        -1.1100   -18.3030   -15.3240 h1         1 5W0       0.031700
     45 H012         0.0180   -16.9640   -15.6280 h1         1 5W0       0.031700
     46 H013         0.3140   -18.0870   -14.2780 h1         1 5W0       0.031700
     47 H031         0.3570   -16.0560   -12.6980 h1         1 5W0       0.040950
     48 H032         0.0560   -15.0010   -14.0830 h1         1 5W0       0.040950
     49 H041        -0.6050   -13.9440   -11.9190 h1         1 5W0       0.045950
     50 H042        -1.9640   -14.0740   -13.0410 h1         1 5W0       0.045950
     51 H061        -3.3010   -17.1610   -11.1780 h1         1 5W0       0.045950
     52 H062        -3.7030   -16.1390   -12.5700 h1         1 5W0       0.045950
     53 H071        -2.6460   -18.2070   -13.3570 h1         1 5W0       0.040950
     54 H072        -1.2780   -17.9960   -12.2590 h1         1 5W0       0.040950
     55 H091        -4.6320   -15.0050   -10.6070 ha         1 5W0       0.118000
     56 H191        -0.8010    -8.4250    -5.4480 hn         1 5W0       0.508000
     57 H231         2.9080    -9.9940    -9.5760 ha         1 5W0       0.116000
     58 H251         2.9040    -7.7080    -9.8910 hn         1 5W0       0.495000
     59 H301         5.6870    -5.4050    -6.1620 hc         1 5W0       0.051922
     60 H302         5.2880    -4.6300    -7.7040 hc         1 5W0       0.051922
     61 H303         4.1470    -4.5460    -6.3470 hc         1 5W0       0.051922
     62 H311         4.4330    -7.4170    -5.3550 hc         1 5W0       0.051922
     63 H312         2.8280    -6.7170    -5.6190 hc         1 5W0       0.051922
     64 H313         3.2700    -8.2680    -6.3670 hc         1 5W0       0.051922
     65 H321         6.0910    -7.6230    -7.3900 hc         1 5W0       0.051922
     66 H322         4.8280    -8.3490    -8.3920 hc         1 5W0       0.051922
     67 H323         5.6690    -6.8850    -8.9430 hc         1 5W0       0.051922
     68 H331         0.3090    -7.4310    -7.2770 ha         1 5W0       0.150000
     69 H351        -1.3050   -13.2310    -7.3680 ha         1 5W0       0.169000
     70 C17         -2.2340    -8.5640    -3.4230 c3         1 5W0      -0.024800
     71 C01         -0.4670   -17.5560   -14.8400 c3         1 5W0       0.152100
@<TRIPOS>BOND
     1     1    16 ar  
     2     1    17 ar  
     3     1    36 1   
     4     2     3 1   
     5     2    17 1   
     6     2    37 1   
     7     3    18 ar  
     8     3    32 ar  
     9     4    18 ar  
    10     4    19 ar  
    11     4    38 1   
    12     5     6 ar  
    13     5    21 1   
    14     5    31 ar  
    15     6     7 ar  
    16     6    42 1   
    17     7    22 ar  
    18     7    43 1   
    19     8    22 ar  
    20     8    23 1   
    21     8    31 ar  
    22     9    10 1   
    23     9    14 1   
    24     9    71 1   
    25    10    11 1   
    26    10    47 1   
    27    10    48 1   
    28    11    12 1   
    29    11    49 1   
    30    11    50 1   
    31    12    13 1   
    32    12    15 1   
    33    13    14 1   
    34    13    51 1   
    35    13    52 1   
    36    14    53 1   
    37    14    54 1   
    38    15    16 ar  
    39    15    34 ar  
    40    16    55 1   
    41    17    33 ar  
    42    19    20 ar  
    43    19    70 1   
    44    20    21 1   
    45    20    32 ar  
    46    21    56 1   
    47    22    57 1   
    48    23    24 1   
    49    23    58 1   
    50    24    25 2   
    51    24    26 2   
    52    24    27 1   
    53    27    28 1   
    54    27    29 1   
    55    27    30 1   
    56    28    59 1   
    57    28    60 1   
    58    28    61 1   
    59    29    62 1   
    60    29    63 1   
    61    29    64 1   
    62    30    65 1   
    63    30    66 1   
    64    30    67 1   
    65    31    68 1   
    66    33    34 ar  
    67    33    69 1   
    68    34    35 1   
    69    39    70 1   
    70    40    70 1   
    71    41    70 1   
    72    44    71 1   
    73    45    71 1   
    74    46    71 1   
@<TRIPOS>SUBSTRUCTURE
     1 5W0         1 TEMP              0 ****  ****    0 ROOT
