@<TRIPOS>MOLECULE
5W0
   71    74     1     0     0
SMALL
abcg2


@<TRIPOS>ATOM
      1 C10         -3.9900   -14.4400    -8.3980 ca         1 5W0      -0.165000
      2 N12         -3.9230   -12.7510    -6.7090 nu         1 5W0      -0.929900
      3 C13         -3.5650   -11.6560    -5.9640 ca         1 5W0       0.412900
      4 C15         -4.1360   -10.2180    -4.3100 ca         1 5W0       0.170900
      5 C20          0.0860    -9.7130    -6.6150 ca         1 5W0       0.320000
      6 C21          0.5290   -11.0340    -6.7100 ca         1 5W0      -0.124000
      7 C22          1.5460   -11.3470    -7.6000 ca         1 5W0      -0.066000
      8 C24          1.7160    -9.0430    -8.2610 ca         1 5W0       0.296000
      9 N02         -1.3230   -16.3960   -13.8780 n3         1 5W0      -0.721600
     10 C03         -0.7920   -15.0830   -13.5320 c6         1 5W0       0.160300
     11 C04         -1.6440   -14.4200   -12.4650 c6         1 5W0       0.184800
     12 N05         -1.7340   -15.2760   -11.2730 nh         1 5W0      -0.763400
     13 C06         -2.2600   -16.5920   -11.6200 c6         1 5W0       0.184800
     14 C07         -1.3930   -17.2360   -12.6880 c6         1 5W0       0.160300
     15 C08         -2.2960   -14.6570   -10.1390 ca         1 5W0       0.204000
     16 C09         -3.4880   -15.0680    -9.5280 ca         1 5W0      -0.107000
     17 C11         -3.3320   -13.3450    -7.8250 ca         1 5W0       0.323000
     18 N14         -4.4610   -11.2970    -5.0310 nb         1 5W0      -0.266000
     19 C16         -2.9740    -9.4880    -4.4670 ca         1 5W0      -0.289300
     20 C18         -2.1030    -9.9760    -5.4680 ca         1 5W0       0.419900
     21 N19         -0.9210    -9.3320    -5.7090 nu         1 5W0      -0.950900
     22 C23          2.1520   -10.3620    -8.3700 ca         1 5W0      -0.164000
     23 N25          2.3190    -8.0600    -9.0900 nu         1 5W0      -0.893100
     24 S26          2.8690    -6.5750    -8.6030 s6         1 5W0       1.190100
     25 O27          1.8100    -5.9320    -7.8600 o          1 5W0      -0.532000
     26 O28          3.3370    -5.9550    -9.8240 o          1 5W0      -0.532000
     27 C29          4.3070    -6.8140    -7.4870 c3         1 5W0      -0.268000
     28 C30          4.8290    -5.4070    -7.1710 c3         1 5W0      -0.081100
     29 C31          3.8490    -7.5210    -6.2110 c3         1 5W0      -0.081100
     30 C32          5.3610    -7.6370    -8.2280 c3         1 5W0      -0.081100
     31 C33          0.6720    -8.7210    -7.3990 ca         1 5W0      -0.170000
     32 N34         -2.4040   -11.0480    -6.2050 nb         1 5W0      -0.293000
     33 C35         -2.1330   -12.9190    -8.4090 ca         1 5W0      -0.162000
     34 C36         -1.6550   -13.5820    -9.5190 ca         1 5W0       0.170000
     35 F37         -0.4650   -13.1540   -10.0250 f          1 5W0      -0.182000
     36 H101        -4.9150   -14.7930    -7.9600 ha         1 5W0       0.115000
     37 H121        -4.8160   -13.1340    -6.4380 hn         1 5W0       0.511000
     38 H151        -4.8520    -9.9170    -3.5510 h4         1 5W0       0.022100
     39 H171        -1.7180    -8.4120    -3.0840 hc         1 5W0       0.041033
     40 H172        -2.5500    -7.3820    -4.2470 hc         1 5W0       0.041033
     41 H173        -3.4490    -8.1010    -2.9110 hc         1 5W0       0.041033
     42 H211         0.0820   -11.8000    -6.0970 ha         1 5W0       0.138000
     43 H221         1.8870   -12.3710    -7.6810 ha         1 5W0       0.124000
     44 H011        -0.9910   -17.9880   -15.1940 h1         1 5W0       0.031700
     45 H012        -0.5470   -16.3910   -15.8210 h1         1 5W0       0.031700
     46 H013         0.5020   -17.2010   -14.6370 h1         1 5W0       0.031700
     47 H031         0.2480   -15.1600   -13.1680 h1         1 5W0       0.040950
     48 H032        -0.7850   -14.4570   -14.4270 h1         1 5W0       0.040950
     49 H041        -1.2020   -13.4650   -12.1920 h1         1 5W0       0.045950
     50 H042        -2.6510   -14.2280   -12.8660 h1         1 5W0       0.045950
     51 H061        -2.2600   -17.2200   -10.7280 h1         1 5W0       0.045950
     52 H062        -3.2950   -16.5290   -11.9910 h1         1 5W0       0.045950
     53 H071        -1.8220   -18.2020   -12.9630 h1         1 5W0       0.040950
     54 H072        -0.3850   -17.4210   -12.2750 h1         1 5W0       0.040950
     55 H091        -4.0410   -15.8960    -9.9450 ha         1 5W0       0.118000
     56 H191        -0.8370    -8.4030    -5.3270 hn         1 5W0       0.508000
     57 H231         2.9630   -10.6080    -9.0440 ha         1 5W0       0.116000
     58 H251         2.9050    -8.4360    -9.8260 hn         1 5W0       0.495000
     59 H301         5.6870    -5.5100    -6.5050 hc         1 5W0       0.051922
     60 H302         5.1540    -4.8900    -8.0730 hc         1 5W0       0.051922
     61 H303         4.0730    -4.8060    -6.6660 hc         1 5W0       0.051922
     62 H311         4.7060    -7.5770    -5.5360 hc         1 5W0       0.051922
     63 H312         3.0530    -6.9710    -5.7110 hc         1 5W0       0.051922
     64 H313         3.5100    -8.5370    -6.4070 hc         1 5W0       0.051922
     65 H321         6.2360    -7.7270    -7.5820 hc         1 5W0       0.051922
     66 H322         5.0040    -8.6430    -8.4510 hc         1 5W0       0.051922
     67 H323         5.6680    -7.1530    -9.1540 hc         1 5W0       0.051922
     68 H331         0.3140    -7.7040    -7.3350 ha         1 5W0       0.150000
     69 H351        -1.5730   -12.0980    -7.9970 ha         1 5W0       0.169000
     70 C17         -2.6550    -8.2840    -3.6350 c3         1 5W0      -0.024800
     71 C01         -0.5460   -17.0260   -14.9340 c3         1 5W0       0.152100
@<TRIPOS>BOND
     1     1    16 ar  
     2     1    17 ar  
     3     1    36 1   
     4     2     3 1   
     5     2    17 1   
     6     2    37 1   
     7     3    18 ar  
     8     3    32 ar  
     9     4    18 ar  
    10     4    19 ar  
    11     4    38 1   
    12     5     6 ar  
    13     5    21 1   
    14     5    31 ar  
    15     6     7 ar  
    16     6    42 1   
    17     7    22 ar  
    18     7    43 1   
    19     8    22 ar  
    20     8    23 1   
    21     8    31 ar  
    22     9    10 1   
    23     9    14 1   
    24     9    71 1   
    25    10    11 1   
    26    10    47 1   
    27    10    48 1   
    28    11    12 1   
    29    11    49 1   
    30    11    50 1   
    31    12    13 1   
    32    12    15 1   
    33    13    14 1   
    34    13    51 1   
    35    13    52 1   
    36    14    53 1   
    37    14    54 1   
    38    15    16 ar  
    39    15    34 ar  
    40    16    55 1   
    41    17    33 ar  
    42    19    20 ar  
    43    19    70 1   
    44    20    21 1   
    45    20    32 ar  
    46    21    56 1   
    47    22    57 1   
    48    23    24 1   
    49    23    58 1   
    50    24    25 2   
    51    24    26 2   
    52    24    27 1   
    53    27    28 1   
    54    27    29 1   
    55    27    30 1   
    56    28    59 1   
    57    28    60 1   
    58    28    61 1   
    59    29    62 1   
    60    29    63 1   
    61    29    64 1   
    62    30    65 1   
    63    30    66 1   
    64    30    67 1   
    65    31    68 1   
    66    33    34 ar  
    67    33    69 1   
    68    34    35 1   
    69    39    70 1   
    70    40    70 1   
    71    41    70 1   
    72    44    71 1   
    73    45    71 1   
    74    46    71 1   
@<TRIPOS>SUBSTRUCTURE
     1 5W0         1 TEMP              0 ****  ****    0 ROOT
