@<TRIPOS>MOLECULE
5W3
   58    60     1     0     0
SMALL
No Charge or Current Charge


@<TRIPOS>ATOM
      1 C1           0.1640     0.1480    -0.1930 cc         1 5W3      -0.062300
      2 C2          -1.2190    -0.3050    -0.3790 ca         1 5W3      -0.075800
      3 C3          -1.5210    -1.2880    -1.3390 ca         1 5W3       0.015000
      4 C4          -2.8440    -1.7210    -1.5240 ca         1 5W3      -0.224000
      5 C5          -3.8880    -1.1820    -0.7440 ca         1 5W3       0.238100
      6 C6          -3.5890    -0.2090     0.2260 ca         1 5W3      -0.343500
      7 C7          -2.2600     0.2270     0.4060 ca         1 5W3       0.038000
      8 S8          -4.8830     0.4790     1.2510 sy         1 5W3       1.186600
      9 O9          -5.6200    -0.6010     1.9090 o          1 5W3      -0.538500
     10 O10         -4.3640     1.6380     1.9810 o          1 5W3      -0.538500
     11 N11         -5.8990     1.0730     0.0790 n7         1 5W3      -0.907300
     12 O17         -5.2020    -1.5660    -0.9250 os         1 5W3      -0.345100
     13 C18         -5.5950    -2.5510    -1.8970 c3         1 5W3       0.152900
     14 C19          0.5700     1.4690    -0.1370 cd         1 5W3       0.064400
     15 C20         -0.2680     2.7200    -0.2110 c3         1 5W3      -0.020900
     16 N21          1.9550     1.5460    -0.0310 nd         1 5W3      -0.281600
     17 N22          1.3330    -0.5640    -0.1710 na         1 5W3       0.272900
     18 C23          2.3900     0.2900    -0.0470 cc         1 5W3      -0.167000
     19 N24          1.3950    -1.9410    -0.1940 nc         1 5W3      -0.514800
     20 C25          2.6520    -2.3890    -0.1200 cd         1 5W3       0.466000
     21 C26          3.8420    -1.5950    -0.0090 cd         1 5W3      -0.324000
     22 C27          3.7050    -0.2400     0.0320 cc         1 5W3       0.441000
     23 Cl           2.8700    -4.1070    -0.1570 cl         1 5W3      -0.146000
     24 N29          4.7350     0.6570     0.1450 nu         1 5W3      -0.937200
     25 C30          6.1770     0.3500     0.2140 c3         1 5W3       0.205800
     26 C31          7.0330     1.6350     0.3410 c3         1 5W3       0.091000
     27 N32          8.4730     1.3630     0.4730 ns         1 5W3      -0.515900
     28 C33          9.2790     0.8890    -0.5370 c          1 5W3       0.601100
     29 C34         10.7330     0.6700    -0.1440 c3         1 5W3      -0.178100
     30 O35          8.8600     0.6630    -1.6620 o          1 5W3      -0.598100
     31 C11         -7.2690     1.4360     0.4860 c3         1 5W3       0.233800
     32 C12         -8.1560     1.6850    -0.7630 c3         1 5W3       0.153600
     33 O1          -8.1640     0.5300    -1.6270 oh         1 5W3      -0.668000
     34 H1          -0.7300    -1.7090    -1.9560 ha         1 5W3       0.128000
     35 H2          -3.0360    -2.4720    -2.2830 ha         1 5W3       0.121000
     36 H3          -2.0250     0.9670     1.1680 ha         1 5W3       0.150000
     37 H4          -5.9670     0.2500    -0.5230 hn         1 5W3       0.499000
     38 H5          -5.3260    -2.2290    -2.9110 h1         1 5W3       0.049033
     39 H6          -5.1130    -3.5160    -1.6930 h1         1 5W3       0.049033
     40 H7          -6.6810    -2.7020    -1.8670 h1         1 5W3       0.049033
     41 H8          -0.6540     2.9940     0.7780 hc         1 5W3       0.051700
     42 H9           0.3180     3.5680    -0.5850 hc         1 5W3       0.051700
     43 H10         -1.1220     2.5880    -0.8860 hc         1 5W3       0.051700
     44 H11          4.8130    -2.0660     0.0460 ha         1 5W3       0.143000
     45 H12          4.4310     1.6330     0.1460 hn         1 5W3       0.528000
     46 H13          6.3770    -0.2940     1.0820 h1         1 5W3       0.051200
     47 H14          6.4820    -0.2000    -0.6860 h1         1 5W3       0.051200
     48 H15          6.8720     2.2680    -0.5420 h1         1 5W3       0.062200
     49 H16          6.7060     2.1980     1.2240 h1         1 5W3       0.062200
     50 H17          8.9160     1.5240     1.3710 hn         1 5W3       0.315500
     51 H18         10.7720     0.0010     0.7230 hc         1 5W3       0.062033
     52 H19         11.3430     0.2940    -0.9740 hc         1 5W3       0.062033
     53 H20         11.1370     1.6040     0.2640 hc         1 5W3       0.062033
     54 H21         -7.7370     0.6340     1.0740 h1         1 5W3       0.058200
     55 H22         -7.2630     2.3410     1.1080 h1         1 5W3       0.058200
     56 H23         -9.1760     1.9210    -0.4310 h1         1 5W3       0.030700
     57 H24         -7.7710     2.5600    -1.3030 h1         1 5W3       0.030700
     58 H25         -8.7230     0.7580    -2.4040 ho         1 5W3       0.448000
@<TRIPOS>BOND
     1     1     2 1   
     2     1    14 2   
     3     1    17 1   
     4     2     3 ar  
     5     2     7 ar  
     6     3     4 ar  
     7     3    34 1   
     8     4     5 ar  
     9     4    35 1   
    10     5     6 ar  
    11     5    12 1   
    12     6     7 ar  
    13     6     8 1   
    14     7    36 1   
    15     8     9 2   
    16     8    10 2   
    17     8    11 1   
    18    11    31 1   
    19    11    37 1   
    20    12    13 1   
    21    13    38 1   
    22    13    39 1   
    23    13    40 1   
    24    14    15 1   
    25    14    16 1   
    26    15    41 1   
    27    15    42 1   
    28    15    43 1   
    29    16    18 2   
    30    17    18 1   
    31    17    19 1   
    32    18    22 1   
    33    19    20 2   
    34    20    21 1   
    35    20    23 1   
    36    21    22 2   
    37    21    44 1   
    38    22    24 1   
    39    24    25 1   
    40    24    45 1   
    41    25    26 1   
    42    25    46 1   
    43    25    47 1   
    44    26    27 1   
    45    26    48 1   
    46    26    49 1   
    47    27    28 1   
    48    27    50 1   
    49    28    29 1   
    50    28    30 2   
    51    29    51 1   
    52    29    52 1   
    53    29    53 1   
    54    31    32 1   
    55    31    54 1   
    56    31    55 1   
    57    32    33 1   
    58    32    56 1   
    59    32    57 1   
    60    33    58 1   
@<TRIPOS>SUBSTRUCTURE
     1 5W3         1 TEMP              0 ****  ****    0 ROOT
