@<TRIPOS>MOLECULE
5W3
   58    60     1     0     0
SMALL
bcc


@<TRIPOS>ATOM
      1 C1           0.0880     0.1890    -0.3520 cc         1 5W3      -0.062300
      2 C2          -1.2660    -0.3520    -0.3520 ca         1 5W3      -0.075800
      3 C3          -1.5960    -1.5340    -1.0150 ca         1 5W3      -0.003000
      4 C4          -2.8910    -2.0190    -1.0210 ca         1 5W3      -0.242000
      5 C5          -3.9090    -1.3300    -0.3630 ca         1 5W3       0.238100
      6 C6          -3.5850    -0.1390     0.3010 ca         1 5W3      -0.343500
      7 C7          -2.2820     0.3320     0.3110 ca         1 5W3       0.020000
      8 S8          -4.8270     0.7880     1.1770 sy         1 5W3       1.328200
      9 O9          -5.5960    -0.1160     2.0140 o          1 5W3      -0.609300
     10 O10         -4.1270     1.9040     1.7960 o          1 5W3      -0.609300
     11 N11         -5.8490     1.4510     0.0930 n7         1 5W3      -0.852100
     12 O17         -5.1810    -1.7210    -0.3310 os         1 5W3      -0.321900
     13 C18         -5.5680    -2.8850    -1.0430 c3         1 5W3       0.129700
     14 C19          0.5590     1.4810    -0.5160 cd         1 5W3       0.064400
     15 C20         -0.2390     2.7150    -0.7560 c3         1 5W3      -0.020900
     16 N21          1.9110     1.5140    -0.4400 nd         1 5W3      -0.281600
     17 N22          1.2150    -0.5710    -0.1740 na         1 5W3       0.222200
     18 C23          2.2860     0.2710    -0.2320 cc         1 5W3      -0.116300
     19 N24          1.2480    -1.8900     0.0450 nc         1 5W3      -0.514800
     20 C25          2.4460    -2.3580     0.1920 cd         1 5W3       0.531300
     21 C26          3.6530    -1.6440     0.1490 cd         1 5W3      -0.407300
     22 C27          3.5920    -0.2770    -0.0670 cc         1 5W3       0.302600
     23 CL           2.5310    -4.0600     0.4720 cl         1 5W3      -0.146000
     24 N29          4.6440     0.5400    -0.1230 nu         1 5W3      -0.743600
     25 C30          6.0040     0.0760     0.0030 c3         1 5W3       0.205800
     26 C31          6.9620     1.2500    -0.0940 c3         1 5W3       0.091000
     27 N32          8.3170     0.7710     0.0380 ns         1 5W3      -0.582900
     28 C33          9.3760     1.5970     0.0100 c          1 5W3       0.668100
     29 C34         10.7220     0.9390     0.1750 c3         1 5W3      -0.178100
     30 O35          9.2550     2.8060    -0.1350 o          1 5W3      -0.598100
     31 C11         -6.9770     0.7650    -0.5200 c3         1 5W3       0.233800
     32 C12         -8.1110     1.7400    -0.7470 c3         1 5W3       0.130400
     33 O1          -7.6760     2.7300    -1.6520 oh         1 5W3      -0.605800
     34 H1          -0.8380    -2.0870    -1.5500 ha         1 5W3       0.146000
     35 H2          -3.0990    -2.9390    -1.5500 ha         1 5W3       0.139000
     36 H3          -2.0480     1.2370     0.8540 ha         1 5W3       0.168000
     37 H4          -5.4170     2.1700    -0.4750 hn         1 5W3       0.443800
     38 H5          -5.3780    -2.7840    -2.1130 h1         1 5W3       0.049033
     39 H6          -5.0570    -3.7740    -0.6680 h1         1 5W3       0.049033
     40 H7          -6.6360    -2.9960    -0.8820 h1         1 5W3       0.049033
     41 H8          -0.4690     3.2320     0.1790 hc         1 5W3       0.051700
     42 H9           0.3150     3.4100    -1.3850 hc         1 5W3       0.051700
     43 H10         -1.1850     2.4900    -1.2470 hc         1 5W3       0.051700
     44 H11          4.5890    -2.1620     0.2900 ha         1 5W3       0.161000
     45 H12          4.4700     1.5150    -0.3120 hn         1 5W3       0.472800
     46 H13          6.1360    -0.4310     0.9650 h1         1 5W3       0.051200
     47 H14          6.2280    -0.6520    -0.7840 h1         1 5W3       0.051200
     48 H15          6.8290     1.7570    -1.0530 h1         1 5W3       0.062200
     49 H16          6.7370     1.9760     0.6930 h1         1 5W3       0.062200
     50 H17          8.4710    -0.2170     0.1540 hn         1 5W3       0.315500
     51 H18         10.6720    -0.1450     0.2640 hc         1 5W3       0.062033
     52 H19         11.3540     1.1870    -0.6770 hc         1 5W3       0.062033
     53 H20         11.2100     1.3350     1.0660 hc         1 5W3       0.062033
     54 H21         -6.6930     0.2940    -1.4640 h1         1 5W3       0.058200
     55 H22         -7.3270    -0.0190     0.1480 h1         1 5W3       0.058200
     56 H23         -8.9670     1.1770    -1.1390 h1         1 5W3       0.030700
     57 H24         -8.4130     2.1700     0.2150 h1         1 5W3       0.030700
     58 H25         -8.3480     3.4160    -1.7000 ho         1 5W3       0.409000
@<TRIPOS>BOND
     1     1     2 1   
     2     1    14 2   
     3     1    17 1   
     4     2     3 ar  
     5     2     7 ar  
     6     3     4 ar  
     7     3    34 1   
     8     4     5 ar  
     9     4    35 1   
    10     5     6 ar  
    11     5    12 1   
    12     6     7 ar  
    13     6     8 1   
    14     7    36 1   
    15     8     9 2   
    16     8    10 2   
    17     8    11 1   
    18    11    31 1   
    19    11    37 1   
    20    12    13 1   
    21    13    38 1   
    22    13    39 1   
    23    13    40 1   
    24    14    15 1   
    25    14    16 1   
    26    15    41 1   
    27    15    42 1   
    28    15    43 1   
    29    16    18 2   
    30    17    18 1   
    31    17    19 1   
    32    18    22 1   
    33    19    20 2   
    34    20    21 1   
    35    20    23 1   
    36    21    22 2   
    37    21    44 1   
    38    22    24 1   
    39    24    25 1   
    40    24    45 1   
    41    25    26 1   
    42    25    46 1   
    43    25    47 1   
    44    26    27 1   
    45    26    48 1   
    46    26    49 1   
    47    27    28 1   
    48    27    50 1   
    49    28    29 1   
    50    28    30 2   
    51    29    51 1   
    52    29    52 1   
    53    29    53 1   
    54    31    32 1   
    55    31    54 1   
    56    31    55 1   
    57    32    33 1   
    58    32    56 1   
    59    32    57 1   
    60    33    58 1   
@<TRIPOS>SUBSTRUCTURE
     1 5W3         1 TEMP              0 ****  ****    0 ROOT
