@<TRIPOS>MOLECULE
5W4
   42    45     1     0     0
SMALL
abcg2


@<TRIPOS>ATOM
      1 C4          -1.6140     1.8480     0.7130 ca         1 5W4      -0.112000
      2 C14          3.1520    -2.2960     1.4710 ca         1 5W4      -0.113000
      3 C5          -0.4180     2.5430     0.7880 ca         1 5W4      -0.040000
      4 C6           0.7010     1.9740     0.2040 ca         1 5W4      -0.160600
      5 C11          2.5560    -2.0480    -1.2240 ca         1 5W4      -0.093500
      6 C7           2.0930     2.4670     0.1430 c          1 5W4       0.581600
      7 C9           1.9960     0.3860    -0.9550 c5         1 5W4       0.204300
      8 C10          2.4660    -0.9380    -0.3960 ca         1 5W4      -0.103300
      9 C12          2.9360    -3.2820    -0.7090 ca         1 5W4      -0.113000
     10 C13          3.2350    -3.4080     0.6390 ca         1 5W4      -0.103000
     11 N1          -5.1480    -0.5700    -0.2800 nc         1 5W4      -0.364300
     12 C3          -1.6980     0.6100     0.0590 ca         1 5W4       0.025000
     13 O            2.5280     3.5150     0.5880 o          1 5W4      -0.539000
     14 N            2.7960     1.5130    -0.5160 n          1 5W4      -0.416800
     15 C15          2.7680    -1.0680     0.9570 ca         1 5W4      -0.093500
     16 C16          0.6310     0.7570    -0.4470 ca         1 5W4      -0.079300
     17 C17         -0.5590     0.0630    -0.5360 ca         1 5W4      -0.089000
     18 C2          -2.9680    -0.1170     0.0140 cd         1 5W4      -0.192000
     19 C18         -3.1910    -1.4330     0.2820 cc         1 5W4       0.208300
     20 C19         -2.3140    -2.5420     0.7190 c3         1 5W4      -0.142400
     21 O1          -4.4860    -1.6980     0.1110 os         1 5W4      -0.071700
     22 C1          -4.2610     0.3780    -0.3340 cd         1 5W4       0.295300
     23 C           -4.6380     1.7550    -0.7500 c3         1 5W4      -0.134400
     24 H1          -2.4950     2.2590     1.1890 ha         1 5W4       0.121000
     25 H3          -0.3630     3.4940     1.3030 ha         1 5W4       0.137000
     26 H4           2.3310    -1.9490    -2.2790 ha         1 5W4       0.118000
     27 H5           4.3310     1.7040    -1.9290 h1         1 5W4       0.045033
     28 H6           4.6200     2.4840    -0.3660 h1         1 5W4       0.045033
     29 H7           4.7320     0.7260    -0.5080 h1         1 5W4       0.045033
     30 H8           1.9990     0.3310    -2.0500 h1         1 5W4       0.073700
     31 H9           3.0020    -4.1410    -1.3650 ha         1 5W4       0.115500
     32 H10          3.5350    -4.3660     1.0430 ha         1 5W4       0.115000
     33 H11          2.7040    -0.2090     1.6150 ha         1 5W4       0.118000
     34 H12         -0.6150    -0.8810    -1.0640 ha         1 5W4       0.124000
     35 H13         -2.7480    -3.0730     1.5670 hc         1 5W4       0.066367
     36 H14         -2.1620    -3.2660    -0.0840 hc         1 5W4       0.066367
     37 H15         -1.3400    -2.1600     1.0170 hc         1 5W4       0.066367
     38 H16         -4.5670     2.4540     0.0830 hc         1 5W4       0.058367
     39 H17         -3.9750     2.1150    -1.5360 hc         1 5W4       0.058367
     40 H18         -5.6600     1.7780    -1.1230 hc         1 5W4       0.058367
     41 C8           4.1920     1.6100    -0.8500 c3         1 5W4       0.097300
     42 H2           3.3860    -2.3890     2.5240 ha         1 5W4       0.115500
@<TRIPOS>BOND
     1     1     3 ar  
     2     1    12 ar  
     3     1    24 1   
     4     2    10 ar  
     5     2    15 ar  
     6     2    42 1   
     7     3     4 ar  
     8     3    25 1   
     9     4     6 1   
    10     4    16 ar  
    11     5     8 ar  
    12     5     9 ar  
    13     5    26 1   
    14     6    13 2   
    15     6    14 1   
    16     7     8 1   
    17     7    14 1   
    18     7    16 1   
    19     7    30 1   
    20     8    15 ar  
    21     9    10 ar  
    22     9    31 1   
    23    10    32 1   
    24    11    21 1   
    25    11    22 2   
    26    12    17 ar  
    27    12    18 1   
    28    14    41 1   
    29    15    33 1   
    30    16    17 ar  
    31    17    34 1   
    32    18    19 2   
    33    18    22 1   
    34    19    20 1   
    35    19    21 1   
    36    20    35 1   
    37    20    36 1   
    38    20    37 1   
    39    22    23 1   
    40    23    38 1   
    41    23    39 1   
    42    23    40 1   
    43    27    41 1   
    44    28    41 1   
    45    29    41 1   
@<TRIPOS>SUBSTRUCTURE
     1 5W4         1 TEMP              0 ****  ****    0 ROOT
