@<TRIPOS>MOLECULE
5W4
   42    45     1     0     0
SMALL
No Charge or Current Charge


@<TRIPOS>ATOM
      1 C4          -1.6370     1.9430     0.5590 ca         1 5W4      -0.112000
      2 C14          3.0190    -2.1610     1.7660 ca         1 5W4      -0.113000
      3 C5          -0.3960     2.6100     0.5240 ca         1 5W4      -0.040000
      4 C6           0.6950     1.9410    -0.0400 ca         1 5W4      -0.160600
      5 C11          3.0150    -2.1360    -1.0410 ca         1 5W4      -0.093500
      6 C7           2.0910     2.3880    -0.1930 c          1 5W4       0.581600
      7 C9           1.9080     0.1550    -1.1070 c5         1 5W4       0.204300
      8 C10          2.4830    -1.0350    -0.3390 ca         1 5W4      -0.103300
      9 C12          3.5430    -3.2390    -0.3480 ca         1 5W4      -0.113000
     10 C13          3.5460    -3.2520     1.0560 ca         1 5W4      -0.103000
     11 N1          -5.3560    -0.3960    -0.0090 nc         1 5W4      -0.364300
     12 C3          -1.7830     0.6290     0.0400 ca         1 5W4       0.025000
     13 O            2.5630     3.4630     0.1510 o          1 5W4      -0.539000
     14 N            2.7790     1.3350    -0.8120 n          1 5W4      -0.416800
     15 C15          2.4910    -1.0590     1.0730 ca         1 5W4      -0.093500
     16 C16          0.5820     0.6650    -0.5550 ca         1 5W4      -0.079300
     17 C17         -0.6480    -0.0080    -0.5220 ca         1 5W4      -0.089000
     18 C2          -3.0930    -0.0650     0.0980 cd         1 5W4      -0.192000
     19 C18         -3.3210    -1.4180     0.1110 cc         1 5W4       0.208300
     20 C19         -2.4100    -2.6070     0.2420 c3         1 5W4      -0.142400
     21 O1          -4.6740    -1.6510     0.0890 os         1 5W4      -0.071700
     22 C1          -4.3910     0.5040    -0.0170 cd         1 5W4       0.295300
     23 C           -4.7620     1.9530    -0.2030 c3         1 5W4      -0.134400
     24 H1          -2.4740     2.4450     1.0330 ha         1 5W4       0.121000
     25 H3          -0.2870     3.6120     0.9350 ha         1 5W4       0.137000
     26 H4           3.0190    -2.1380    -2.1290 ha         1 5W4       0.118000
     27 H5           4.4040     2.3470    -1.7110 h1         1 5W4       0.045033
     28 H6           4.7950     1.4750    -0.1970 h1         1 5W4       0.045033
     29 H7           4.5320     0.5640    -1.7130 h1         1 5W4       0.045033
     30 H8           1.8430    -0.0390    -2.1870 h1         1 5W4       0.073700
     31 H9           3.9510    -4.0830    -0.9000 ha         1 5W4       0.115500
     32 H10          3.9550    -4.1060     1.5930 ha         1 5W4       0.115000
     33 H11          2.0870    -0.2200     1.6360 ha         1 5W4       0.118000
     34 H12         -0.7130    -0.9980    -0.9580 ha         1 5W4       0.124000
     35 H13         -2.9350    -3.4490     0.7080 hc         1 5W4       0.066367
     36 H14         -2.0540    -2.9370    -0.7400 hc         1 5W4       0.066367
     37 H15         -1.5420    -2.3720     0.8690 hc         1 5W4       0.066367
     38 H16         -4.8050     2.4730     0.7600 hc         1 5W4       0.058367
     39 H17         -4.0380     2.4670    -0.8450 hc         1 5W4       0.058367
     40 H18         -5.7450     2.0560    -0.6780 hc         1 5W4       0.058367
     41 C8           4.2140     1.4370    -1.1280 c3         1 5W4       0.097300
     42 H2           3.0200    -2.1690     2.8540 ha         1 5W4       0.115500
@<TRIPOS>BOND
     1     1     3 ar  
     2     1    12 ar  
     3     1    24 1   
     4     2    10 ar  
     5     2    15 ar  
     6     2    42 1   
     7     3     4 ar  
     8     3    25 1   
     9     4     6 1   
    10     4    16 ar  
    11     5     8 ar  
    12     5     9 ar  
    13     5    26 1   
    14     6    13 2   
    15     6    14 1   
    16     7     8 1   
    17     7    14 1   
    18     7    16 1   
    19     7    30 1   
    20     8    15 ar  
    21     9    10 ar  
    22     9    31 1   
    23    10    32 1   
    24    11    21 1   
    25    11    22 2   
    26    12    17 ar  
    27    12    18 1   
    28    14    41 1   
    29    15    33 1   
    30    16    17 ar  
    31    17    34 1   
    32    18    19 2   
    33    18    22 1   
    34    19    20 1   
    35    19    21 1   
    36    20    35 1   
    37    20    36 1   
    38    20    37 1   
    39    22    23 1   
    40    23    38 1   
    41    23    39 1   
    42    23    40 1   
    43    27    41 1   
    44    28    41 1   
    45    29    41 1   
@<TRIPOS>SUBSTRUCTURE
     1 5W4         1 TEMP              0 ****  ****    0 ROOT
