@<TRIPOS>MOLECULE
5W5
   55    57     1     0     0
SMALL
abcg2


@<TRIPOS>ATOM
      1 C2          -1.9840    -0.1460     0.5410 c          1 5W5       0.670100
      2 C3           0.7890     0.8500     0.7640 c          1 5W5       0.613100
      3 C13          3.1220     0.1660     0.2480 ca         1 5W5      -0.001000
      4 C14         -5.1910    -1.7920     0.9150 ca         1 5W5      -0.061300
      5 C15          4.1000     0.3030    -0.7410 ca         1 5W5      -0.166000
      6 C16         -3.6960    -1.8140     1.1200 c3         1 5W5       0.149300
      7 C18          5.3680    -0.1940    -0.5180 ca         1 5W5       0.119100
      8 C22         -2.4430     2.2540     1.1410 c5         1 5W5       0.106000
      9 C24         -0.3130     3.0870     0.4580 c5         1 5W5      -0.090400
     10 C25         -1.7840     3.4830     0.5290 c5         1 5W5      -0.091400
     11 C26          4.7320    -0.9620     1.6330 ca         1 5W5      -0.077000
     12 C27         -7.1690    -0.9810    -0.2200 ca         1 5W5      -0.071000
     13 C28          3.4480    -0.4730     1.4450 ca         1 5W5      -0.122000
     14 C29          5.7120    -0.8310     0.6610 ca         1 5W5      -0.130000
     15 C30         -6.0150    -2.5030     1.7790 ca         1 5W5      -0.113000
     16 N1          -1.6370     1.1640     0.6150 n          1 5W5      -0.429800
     17 C4          -0.3600     1.5930     0.0980 c5         1 5W5       0.049700
     18 C5           7.0930     0.9870    -1.5660 c3         1 5W5       0.515000
     19 N8          -3.1630    -0.4740     1.1380 ns         1 5W5      -0.521900
     20 C9          -5.7850    -1.0290    -0.0950 ca         1 5W5      -0.110600
     21 O10          6.3090    -0.0980    -1.5380 os         1 5W5      -0.404100
     22 O11          0.7480     0.5150     1.9310 o          1 5W5      -0.567100
     23 O12         -1.2760    -0.9590    -0.0450 o          1 5W5      -0.629100
     24 O17         -4.1000    -0.8360    -1.7700 o          1 5W5      -0.461000
     25 F19          7.8180     1.1300    -0.4560 f          1 5W5      -0.110000
     26 F20          7.9200     0.8580    -2.5910 f          1 5W5      -0.110000
     27 F21          6.4030     2.1180    -1.7230 f          1 5W5      -0.110000
     28 O23         -5.2620     0.9760    -1.1710 os         1 5W5      -0.443100
     29 C31         -4.5280     1.7730    -2.1030 c3         1 5W5       0.148900
     30 C32         -7.9770    -1.7150     0.6380 ca         1 5W5      -0.115000
     31 C33         -7.3970    -2.4800     1.6380 ca         1 5W5      -0.090000
     32 H1           3.8580     0.7810    -1.6830 ha         1 5W5       0.130000
     33 H2          -3.4720    -2.3420     2.0510 h1         1 5W5       0.072700
     34 H3          -3.2070    -2.3690     0.3210 h1         1 5W5       0.072700
     35 H4          -2.4090     2.2890     2.2350 h1         1 5W5       0.051200
     36 H5          -3.4880     2.1550     0.8410 h1         1 5W5       0.051200
     37 H6           0.2560     3.6600    -0.2730 hc         1 5W5       0.063700
     38 H7           0.1540     3.2300     1.4350 hc         1 5W5       0.063700
     39 H8          -2.1800     3.6640    -0.4720 hc         1 5W5       0.056200
     40 H9          -1.9500     4.3800     1.1230 hc         1 5W5       0.056200
     41 H10          4.9710    -1.4630     2.5610 ha         1 5W5       0.123000
     42 H11         -7.6240    -0.3850    -1.0010 ha         1 5W5       0.124000
     43 H12          2.7120    -0.6040     2.2210 ha         1 5W5       0.155000
     44 H13          6.7060    -1.2310     0.8120 ha         1 5W5       0.136000
     45 H14         -5.5680    -3.0750     2.5830 ha         1 5W5       0.118000
     46 H15         -0.3140     1.4630    -0.9900 h1         1 5W5       0.068700
     47 H16          1.7490     1.0080    -1.0000 hn         1 5W5       0.155000
     48 H17         -3.5550     0.1490     1.8260 hn         1 5W5       0.311500
     49 H18         -4.6800     1.4320    -3.1270 h1         1 5W5       0.048033
     50 H19         -4.9110     2.7840    -1.9970 h1         1 5W5       0.048033
     51 H20         -3.4620     1.7620    -1.8750 h1         1 5W5       0.048033
     52 H21         -9.0530    -1.6820     0.5260 ha         1 5W5       0.119000
     53 H22         -8.0170    -3.0470     2.3200 ha         1 5W5       0.118000
     54 N6           1.8600     0.6810    -0.0510 ns         1 5W5      -0.140000
     55 C7          -4.9440    -0.3080    -1.0920 c          1 5W5       0.603700
@<TRIPOS>BOND
     1     1    16 1   
     2     1    19 1   
     3     1    23 2   
     4     2    17 1   
     5     2    22 2   
     6     2    54 1   
     7     3     5 ar  
     8     3    13 ar  
     9     3    54 1   
    10     4     6 1   
    11     4    15 ar  
    12     4    20 ar  
    13     5     7 ar  
    14     5    32 1   
    15     6    19 1   
    16     6    33 1   
    17     6    34 1   
    18     7    14 ar  
    19     7    21 1   
    20     8    10 1   
    21     8    16 1   
    22     8    35 1   
    23     8    36 1   
    24     9    10 1   
    25     9    17 1   
    26     9    37 1   
    27     9    38 1   
    28    10    39 1   
    29    10    40 1   
    30    11    13 ar  
    31    11    14 ar  
    32    11    41 1   
    33    12    20 ar  
    34    12    30 ar  
    35    12    42 1   
    36    13    43 1   
    37    14    44 1   
    38    15    31 ar  
    39    15    45 1   
    40    16    17 1   
    41    17    46 1   
    42    18    21 1   
    43    18    25 1   
    44    18    26 1   
    45    18    27 1   
    46    19    48 1   
    47    20    55 1   
    48    24    55 2   
    49    28    29 1   
    50    28    55 1   
    51    29    49 1   
    52    29    50 1   
    53    29    51 1   
    54    30    31 ar  
    55    30    52 1   
    56    31    53 1   
    57    47    54 1   
@<TRIPOS>SUBSTRUCTURE
     1 5W5         1 TEMP              0 ****  ****    0 ROOT
