@<TRIPOS>MOLECULE
5W5
   55    57     1     0     0
SMALL
No Charge or Current Charge


@<TRIPOS>ATOM
      1 C2          -1.9050    -0.3820     0.5480 c          1 5W5       0.670100
      2 C3           1.0550     0.5570     1.1490 c          1 5W5       0.613100
      3 C13          3.5410     0.1620     0.6220 ca         1 5W5      -0.001000
      4 C14         -5.4080    -1.7020     0.7620 ca         1 5W5      -0.061300
      5 C15          4.5410     0.5500    -0.2910 ca         1 5W5      -0.166000
      6 C16         -3.8920    -1.8950     0.7540 c3         1 5W5       0.149300
      7 C18          5.8660     0.0760    -0.1560 ca         1 5W5       0.119100
      8 C22         -2.3380     2.0650     1.1160 c5         1 5W5       0.106000
      9 C24         -0.0650     2.8240     0.9430 c5         1 5W5      -0.090400
     10 C25         -1.5110     3.2840     0.6400 c5         1 5W5      -0.091400
     11 C26          5.1920    -1.1850     1.8160 ca         1 5W5      -0.077000
     12 C27         -7.4680    -0.7180    -0.1130 ca         1 5W5      -0.071000
     13 C28          3.8760    -0.7130     1.6790 ca         1 5W5      -0.122000
     14 C29          6.1810    -0.7900     0.9020 ca         1 5W5      -0.130000
     15 C30         -6.1580    -2.2960     1.7980 ca         1 5W5      -0.113000
     16 N1          -1.4660     0.9420     0.7020 n          1 5W5      -0.429800
     17 C4          -0.0650     1.3600     0.4050 c5         1 5W5       0.049700
     18 C5           6.7380     1.2970    -2.1500 c3         1 5W5       0.515000
     19 N8          -3.1970    -0.6210     0.9320 ns         1 5W5      -0.521900
     20 C9          -6.0710    -0.9060    -0.2130 ca         1 5W5      -0.110600
     21 O10          6.8930     0.4190    -1.0160 os         1 5W5      -0.404100
     22 O11          0.9350    -0.0680     2.2000 o          1 5W5      -0.567100
     23 O12         -1.1890    -1.2570     0.0890 o          1 5W5      -0.629100
     24 O17         -4.4800    -0.8180    -2.0260 o          1 5W5      -0.461000
     25 F19          6.3350     2.5360    -1.7840 f          1 5W5      -0.110000
     26 F20          7.9140     1.4440    -2.8000 f          1 5W5      -0.110000
     27 F21          5.8500     0.8170    -3.0500 f          1 5W5      -0.110000
     28 O23         -5.7790     1.0220    -1.6190 os         1 5W5      -0.443100
     29 C31         -5.1580     1.7510    -2.6940 c3         1 5W5       0.148900
     30 C32         -8.2010    -1.3180     0.9230 ca         1 5W5      -0.115000
     31 C33         -7.5470    -2.1090     1.8770 ca         1 5W5      -0.090000
     32 H1           4.2690     1.2210    -1.0990 ha         1 5W5       0.130000
     33 H2          -3.5920    -2.5720     1.5650 h1         1 5W5       0.072700
     34 H3          -3.5830    -2.3600    -0.1910 h1         1 5W5       0.072700
     35 H4          -2.4740     2.0690     2.2070 h1         1 5W5       0.051200
     36 H5          -3.3240     2.0380     0.6350 h1         1 5W5       0.051200
     37 H6           0.6900     3.4520     0.4560 hc         1 5W5       0.063700
     38 H7           0.1310     2.8590     2.0230 hc         1 5W5       0.063700
     39 H8          -1.6530     3.4610    -0.4330 hc         1 5W5       0.056200
     40 H9          -1.7850     4.2070     1.1640 hc         1 5W5       0.056200
     41 H10          5.4450    -1.8590     2.6320 ha         1 5W5       0.123000
     42 H11         -7.9910    -0.1110    -0.8480 ha         1 5W5       0.124000
     43 H12          3.1360    -1.0420     2.4010 ha         1 5W5       0.155000
     44 H13          7.1980    -1.1590     1.0120 ha         1 5W5       0.136000
     45 H14         -5.6620    -2.9020     2.5540 ha         1 5W5       0.118000
     46 H15          0.1150     1.3270    -0.6780 h1         1 5W5       0.068700
     47 H16          2.1440     1.2450    -0.4160 hn         1 5W5       0.155000
     48 H17         -3.7070     0.1550     1.3300 hn         1 5W5       0.311500
     49 H18         -5.2840     1.2240    -3.6490 h1         1 5W5       0.048033
     50 H19         -5.6100     2.7460    -2.7920 h1         1 5W5       0.048033
     51 H20         -4.0840     1.8820    -2.5070 h1         1 5W5       0.048033
     52 H21         -9.2770    -1.1690     0.9850 ha         1 5W5       0.119000
     53 H22         -8.1140    -2.5730     2.6820 ha         1 5W5       0.118000
     54 N6           2.2320     0.6800     0.4190 ns         1 5W5      -0.140000
     55 C7          -5.3260    -0.2460    -1.3510 c          1 5W5       0.603700
@<TRIPOS>BOND
     1     1    16 1   
     2     1    19 1   
     3     1    23 2   
     4     2    17 1   
     5     2    22 2   
     6     2    54 1   
     7     3     5 ar  
     8     3    13 ar  
     9     3    54 1   
    10     4     6 1   
    11     4    15 ar  
    12     4    20 ar  
    13     5     7 ar  
    14     5    32 1   
    15     6    19 1   
    16     6    33 1   
    17     6    34 1   
    18     7    14 ar  
    19     7    21 1   
    20     8    10 1   
    21     8    16 1   
    22     8    35 1   
    23     8    36 1   
    24     9    10 1   
    25     9    17 1   
    26     9    37 1   
    27     9    38 1   
    28    10    39 1   
    29    10    40 1   
    30    11    13 ar  
    31    11    14 ar  
    32    11    41 1   
    33    12    20 ar  
    34    12    30 ar  
    35    12    42 1   
    36    13    43 1   
    37    14    44 1   
    38    15    31 ar  
    39    15    45 1   
    40    16    17 1   
    41    17    46 1   
    42    18    21 1   
    43    18    25 1   
    44    18    26 1   
    45    18    27 1   
    46    19    48 1   
    47    20    55 1   
    48    24    55 2   
    49    28    29 1   
    50    28    55 1   
    51    29    49 1   
    52    29    50 1   
    53    29    51 1   
    54    30    31 ar  
    55    30    52 1   
    56    31    53 1   
    57    47    54 1   
@<TRIPOS>SUBSTRUCTURE
     1 5W5         1 TEMP              0 ****  ****    0 ROOT
