@<TRIPOS>MOLECULE
5W6
   68    71     1     0     0
SMALL
abcg2


@<TRIPOS>ATOM
      1 C1          -0.5860    -0.0200     0.1330 cc         1 5W6      -0.058300
      2 C2           0.7410     0.5820     0.0930 ca         1 5W6      -0.078800
      3 C3           1.0880     1.5570    -0.8420 ca         1 5W6       0.012000
      4 C4           2.3650     2.0860    -0.8940 ca         1 5W6      -0.227000
      5 C5           3.3520     1.6440    -0.0150 ca         1 5W6       0.240100
      6 C6           3.0100     0.6670     0.9310 ca         1 5W6      -0.332500
      7 C7           1.7220     0.1590     0.9880 ca         1 5W6       0.035000
      8 C8           4.8350    -2.1750    -0.8720 c6         1 5W6      -0.092400
      9 C9           6.2470    -1.8480    -1.3540 c6         1 5W6      -0.060700
     10 C10          6.2950    -1.8650    -2.8710 c3         1 5W6       0.166600
     11 C12          6.5570    -0.4700     0.7420 c6         1 5W6       0.233800
     12 C13          6.6890    -0.5060    -0.7740 c6         1 5W6      -0.092400
     13 C14          4.7560    -2.1620     0.6440 c6         1 5W6       0.233800
     14 C18          5.0050     3.0490    -0.9750 c3         1 5W6       0.151900
     15 C19         -0.9890    -1.3360     0.2940 cd         1 5W6       0.062400
     16 C20         -0.1290    -2.5350     0.4880 c3         1 5W6      -0.018900
     17 C23         -2.7790    -0.2130     0.0420 cc         1 5W6      -0.169000
     18 C25         -3.0830     2.4080    -0.3360 cd         1 5W6       0.466000
     19 C26         -4.2490     1.6270    -0.3160 cd         1 5W6      -0.322000
     20 S8           4.2260     0.0320     2.0650 sy         1 5W6       1.209600
     21 O9           4.9880     1.1290     2.6340 o          1 5W6      -0.541500
     22 O10          3.4930    -0.8420     2.9730 o          1 5W6      -0.541500
     23 N11          5.2320    -0.8920     1.1820 n3         1 5W6      -0.794500
     24 O17          4.6100     2.0820    -0.0170 os         1 5W6      -0.336100
     25 N21         -2.3380    -1.4370     0.2360 nd         1 5W6      -0.281600
     26 N22         -1.7520     0.6820    -0.0300 na         1 5W6       0.272900
     27 N24         -1.8600     2.0050    -0.2010 nc         1 5W6      -0.513800
     28 C27         -4.1130     0.2640    -0.1100 cc         1 5W6       0.440000
     29 CL1         -3.2630     4.1110    -0.5670 cl         1 5W6      -0.146000
     30 N29         -5.1160    -0.6130    -0.0430 nu         1 5W6      -0.936200
     31 C30         -6.4960    -0.2550    -0.2590 c3         1 5W6       0.204800
     32 C31         -7.3830    -1.4540     0.0290 c3         1 5W6       0.090000
     33 N32         -8.7620    -1.1040    -0.2130 ns         1 5W6      -0.514900
     34 C33         -9.7500    -2.0130    -0.1790 c          1 5W6       0.601100
     35 C34        -11.1350    -1.4820    -0.4480 c3         1 5W6      -0.178100
     36 O35         -9.5390    -3.1970     0.0480 o          1 5W6      -0.599100
     37 O11          7.6190    -1.6450    -3.3050 oh         1 5W6      -0.661000
     38 H1           0.3580     1.9120    -1.5550 ha         1 5W6       0.128000
     39 H2           2.5810     2.8390    -1.6390 ha         1 5W6       0.121000
     40 H3           1.4770    -0.5680     1.7490 ha         1 5W6       0.149000
     41 H4           4.1220    -1.4500    -1.2800 hc         1 5W6       0.050450
     42 H5           4.5280    -3.1610    -1.2290 hc         1 5W6       0.050450
     43 H6           6.9170    -2.6320    -0.9770 hc         1 5W6       0.062700
     44 H7           5.9150    -2.8310    -3.2290 h1         1 5W6       0.017200
     45 H8           5.6120    -1.0920    -3.2540 h1         1 5W6       0.017200
     46 H9           7.2900    -1.1500     1.1900 h1         1 5W6       0.060200
     47 H10          6.7710     0.5230     1.1240 h1         1 5W6       0.060200
     48 H11          7.7310    -0.3000    -1.0280 hc         1 5W6       0.050450
     49 H12          6.0880     0.2930    -1.2170 hc         1 5W6       0.050450
     50 H13          3.7380    -2.3540     0.9770 h1         1 5W6       0.060200
     51 H14          5.3740    -2.9650     1.0600 h1         1 5W6       0.060200
     52 H15          4.8830     2.6800    -1.9960 h1         1 5W6       0.048700
     53 H16          4.4470     3.9800    -0.8590 h1         1 5W6       0.048700
     54 H17          6.0590     3.2420    -0.7920 h1         1 5W6       0.048700
     55 H18         -0.5870    -3.4080     0.0260 hc         1 5W6       0.050367
     56 H19          0.8580    -2.3980     0.0460 hc         1 5W6       0.050367
     57 H20          0.0150    -2.7620     1.5460 hc         1 5W6       0.050367
     58 H21         -5.2110     2.0940    -0.4590 ha         1 5W6       0.143000
     59 H22         -4.8710    -1.5890     0.0260 hn         1 5W6       0.526000
     60 H23         -6.7680     0.5730     0.4040 h1         1 5W6       0.051200
     61 H24         -6.6520     0.0840    -1.2890 h1         1 5W6       0.051200
     62 H25         -7.0940    -2.2880    -0.6160 h1         1 5W6       0.062700
     63 H26         -7.2380    -1.7770     1.0640 h1         1 5W6       0.062700
     64 H27         -8.9950    -0.1370    -0.3680 hn         1 5W6       0.315500
     65 H28        -11.1690    -0.4060    -0.6020 hc         1 5W6       0.062367
     66 H29        -11.5420    -1.9710    -1.3330 hc         1 5W6       0.062367
     67 H30        -11.7880    -1.7320     0.3890 hc         1 5W6       0.062367
     68 H31          7.6190    -1.6260    -4.2660 ho         1 5W6       0.443000
@<TRIPOS>BOND
     1     1     2 1   
     2     1    15 2   
     3     1    26 1   
     4     2     3 ar  
     5     2     7 ar  
     6     3     4 ar  
     7     3    38 1   
     8     4     5 ar  
     9     4    39 1   
    10     5     6 ar  
    11     5    24 1   
    12     6     7 ar  
    13     6    20 1   
    14     7    40 1   
    15     8     9 1   
    16     8    13 1   
    17     8    41 1   
    18     8    42 1   
    19     9    10 1   
    20     9    12 1   
    21     9    43 1   
    22    10    37 1   
    23    10    44 1   
    24    10    45 1   
    25    11    12 1   
    26    11    23 1   
    27    11    46 1   
    28    11    47 1   
    29    12    48 1   
    30    12    49 1   
    31    13    23 1   
    32    13    50 1   
    33    13    51 1   
    34    14    24 1   
    35    14    52 1   
    36    14    53 1   
    37    14    54 1   
    38    15    16 1   
    39    15    25 1   
    40    16    55 1   
    41    16    56 1   
    42    16    57 1   
    43    17    25 2   
    44    17    26 1   
    45    17    28 1   
    46    18    19 1   
    47    18    27 2   
    48    18    29 1   
    49    19    28 2   
    50    19    58 1   
    51    20    21 2   
    52    20    22 2   
    53    20    23 1   
    54    26    27 1   
    55    28    30 1   
    56    30    31 1   
    57    30    59 1   
    58    31    32 1   
    59    31    60 1   
    60    31    61 1   
    61    32    33 1   
    62    32    62 1   
    63    32    63 1   
    64    33    34 1   
    65    33    64 1   
    66    34    35 1   
    67    34    36 2   
    68    35    65 1   
    69    35    66 1   
    70    35    67 1   
    71    37    68 1   
@<TRIPOS>SUBSTRUCTURE
     1 5W6         1 TEMP              0 ****  ****    0 ROOT
