@<TRIPOS>MOLECULE
5W6
   68    71     1     0     0
SMALL
No Charge or Current Charge


@<TRIPOS>ATOM
      1 C1          -0.9120     0.1610    -0.3090 cc         1 5W6      -0.058300
      2 C2           0.4220     0.7570    -0.4460 ca         1 5W6      -0.078800
      3 C3           0.6360     1.8260    -1.3330 ca         1 5W6       0.012000
      4 C4           1.9160     2.3810    -1.4800 ca         1 5W6      -0.227000
      5 C5           3.0080     1.8860    -0.7330 ca         1 5W6       0.240100
      6 C6           2.7920     0.8300     0.1770 ca         1 5W6      -0.332500
      7 C7           1.5040     0.2720     0.3100 ca         1 5W6       0.035000
      8 C8           6.0870    -0.8270    -1.5160 c6         1 5W6      -0.092400
      9 C9           7.1320    -1.7840    -0.8780 c6         1 5W6      -0.060700
     10 C10          8.5850    -1.3420    -1.2170 c3         1 5W6       0.166600
     11 C12          5.4090    -2.2620     0.9670 c6         1 5W6       0.233800
     12 C13          6.8840    -1.8940     0.6540 c6         1 5W6      -0.092400
     13 C14          4.6420    -1.2450    -1.1430 c6         1 5W6       0.233800
     14 C18          4.5740     3.4540    -1.8350 c3         1 5W6       0.151900
     15 C19         -1.1860    -1.1930    -0.3530 cd         1 5W6       0.062400
     16 C20         -0.2270    -2.3480    -0.5050 c3         1 5W6      -0.018900
     17 C23         -3.1130    -0.2070    -0.2060 cc         1 5W6      -0.169000
     18 C25         -3.6370     2.4320    -0.0940 cd         1 5W6       0.466000
     19 C26         -4.7440     1.5190    -0.0560 cd         1 5W6      -0.322000
     20 S8           4.1090     0.1110     1.1770 sy         1 5W6       1.209600
     21 O9           5.3210     0.9370     1.1680 o          1 5W6      -0.541500
     22 O10          3.4890    -0.3260     2.4330 o          1 5W6      -0.541500
     23 N11          4.4480    -1.3300     0.3280 n3         1 5W6      -0.794500
     24 O17          4.2750     2.4040    -0.8990 os         1 5W6      -0.336100
     25 N21         -2.5570    -1.4130    -0.2730 nd         1 5W6      -0.281600
     26 N22         -2.1440     0.7530    -0.2540 na         1 5W6       0.272900
     27 N24         -2.3420     2.1160    -0.1810 nc         1 5W6      -0.513800
     28 C27         -4.4740     0.1850    -0.1090 cc         1 5W6       0.440000
     29 Cl1         -4.0230     4.1190    -0.0130 cl         1 5W6      -0.146000
     30 N29         -5.4120    -0.8140    -0.0750 nu         1 5W6      -0.936200
     31 C30         -6.8740    -0.6570     0.0450 c3         1 5W6       0.204800
     32 C31         -7.6030    -2.0240     0.0220 c3         1 5W6       0.090000
     33 N32         -9.0680    -1.9030     0.0770 ns         1 5W6      -0.514900
     34 C33         -9.7830    -1.5050     1.1830 c          1 5W6       0.601100
     35 C34        -11.2900    -1.4390     0.9810 c3         1 5W6      -0.178100
     36 O35         -9.2490    -1.2290     2.2470 o          1 5W6      -0.599100
     37 O11          9.5570    -2.2960    -0.7720 oh         1 5W6      -0.661000
     38 H1          -0.1880     2.2150    -1.9270 ha         1 5W6       0.128000
     39 H2           2.0390     3.1940    -2.1880 ha         1 5W6       0.121000
     40 H3           1.3370    -0.5450     1.0100 ha         1 5W6       0.149000
     41 H4           6.2740     0.2070    -1.1990 hc         1 5W6       0.050450
     42 H5           6.1930    -0.8350    -2.6090 hc         1 5W6       0.050450
     43 H6           7.0000    -2.7810    -1.3240 hc         1 5W6       0.062700
     44 H7           8.6640    -1.2140    -2.3050 h1         1 5W6       0.017200
     45 H8           8.7730    -0.3640    -0.7540 h1         1 5W6       0.017200
     46 H9           5.2290    -3.2810     0.5930 h1         1 5W6       0.060200
     47 H10          5.2610    -2.3030     2.0560 h1         1 5W6       0.060200
     48 H11          7.5410    -2.6590     1.0880 hc         1 5W6       0.050450
     49 H12          7.1500    -0.9500     1.1480 hc         1 5W6       0.050450
     50 H13          3.9250    -0.5620    -1.6180 h1         1 5W6       0.060200
     51 H14          4.4530    -2.2340    -1.5870 h1         1 5W6       0.060200
     52 H15          4.3310     3.1450    -2.8590 h1         1 5W6       0.048700
     53 H16          4.0090     4.3640    -1.5960 h1         1 5W6       0.048700
     54 H17          5.6430     3.7000    -1.8000 h1         1 5W6       0.048700
     55 H18         -0.7230    -3.2180    -0.9520 hc         1 5W6       0.050367
     56 H19          0.6160    -2.0830    -1.1530 hc         1 5W6       0.050367
     57 H20          0.1740    -2.6560     0.4670 hc         1 5W6       0.050367
     58 H21         -5.7570     1.8880     0.0180 ha         1 5W6       0.143000
     59 H22         -5.0120    -1.7540    -0.1120 hn         1 5W6       0.526000
     60 H23         -7.1150    -0.1350     0.9820 h1         1 5W6       0.051200
     61 H24         -7.2510    -0.0430    -0.7840 h1         1 5W6       0.051200
     62 H25         -7.3360    -2.5580    -0.8990 h1         1 5W6       0.062700
     63 H26         -7.2660    -2.6300     0.8730 h1         1 5W6       0.062700
     64 H27         -9.6030    -2.1140    -0.7580 hn         1 5W6       0.315500
     65 H28        -11.5080    -0.7830     0.1300 hc         1 5W6       0.062367
     66 H29        -11.6450    -2.4120     0.6220 hc         1 5W6       0.062367
     67 H30        -11.8240    -1.1210     1.8840 hc         1 5W6       0.062367
     68 H31         10.4390    -1.9400    -1.0210 ho         1 5W6       0.443000
@<TRIPOS>BOND
     1     1     2 1   
     2     1    15 2   
     3     1    26 1   
     4     2     3 ar  
     5     2     7 ar  
     6     3     4 ar  
     7     3    38 1   
     8     4     5 ar  
     9     4    39 1   
    10     5     6 ar  
    11     5    24 1   
    12     6     7 ar  
    13     6    20 1   
    14     7    40 1   
    15     8     9 1   
    16     8    13 1   
    17     8    41 1   
    18     8    42 1   
    19     9    10 1   
    20     9    12 1   
    21     9    43 1   
    22    10    37 1   
    23    10    44 1   
    24    10    45 1   
    25    11    12 1   
    26    11    23 1   
    27    11    46 1   
    28    11    47 1   
    29    12    48 1   
    30    12    49 1   
    31    13    23 1   
    32    13    50 1   
    33    13    51 1   
    34    14    24 1   
    35    14    52 1   
    36    14    53 1   
    37    14    54 1   
    38    15    16 1   
    39    15    25 1   
    40    16    55 1   
    41    16    56 1   
    42    16    57 1   
    43    17    25 2   
    44    17    26 1   
    45    17    28 1   
    46    18    19 1   
    47    18    27 2   
    48    18    29 1   
    49    19    28 2   
    50    19    58 1   
    51    20    21 2   
    52    20    22 2   
    53    20    23 1   
    54    26    27 1   
    55    28    30 1   
    56    30    31 1   
    57    30    59 1   
    58    31    32 1   
    59    31    60 1   
    60    31    61 1   
    61    32    33 1   
    62    32    62 1   
    63    32    63 1   
    64    33    34 1   
    65    33    64 1   
    66    34    35 1   
    67    34    36 2   
    68    35    65 1   
    69    35    66 1   
    70    35    67 1   
    71    37    68 1   
@<TRIPOS>SUBSTRUCTURE
     1 5W6         1 TEMP              0 ****  ****    0 ROOT
