@<TRIPOS>MOLECULE
5W7
   69    72     1     0     0
SMALL
abcg2


@<TRIPOS>ATOM
      1 C18          4.7930     3.1320     0.0970 c3         1 5W7       0.150900
      2 C19         -1.2870    -1.2340    -0.5550 cc         1 5W7       0.062400
      3 C20         -0.4370    -2.3820    -0.9750 c3         1 5W7      -0.018900
      4 C23         -3.0630    -0.1290    -0.1670 cd         1 5W7      -0.168000
      5 C25         -3.3300     2.3540     0.7660 cc         1 5W7       0.465000
      6 C26         -4.5100     1.6370     0.5130 cc         1 5W7      -0.320000
      7 N1           8.9920    -0.0800    -2.9300 n8         1 5W7      -0.998200
      8 C2           0.4700     0.5490     0.1030 ca         1 5W7      -0.077800
      9 C1          -0.8670     0.0070    -0.1080 cd         1 5W7      -0.062300
     10 C5           3.0930     1.5160     0.4670 ca         1 5W7       0.242100
     11 C9           7.8800    -0.7390    -2.2620 c6         1 5W7       0.161500
     12 C8           6.6800     0.1990    -2.1930 c6         1 5W7      -0.073400
     13 C13          8.2920    -1.1530    -0.8540 c6         1 5W7      -0.073400
     14 C12          5.5150    -0.4480    -1.4530 c6         1 5W7      -0.088400
     15 C3           0.8440     1.8110    -0.3560 ca         1 5W7       0.015000
     16 C4           2.1290     2.2900    -0.1780 ca         1 5W7      -0.227000
     17 C27         -4.3930     0.3470     0.0210 cd         1 5W7       0.438000
     18 C6           2.7230     0.2460     0.9350 ca         1 5W7      -0.345500
     19 C7           1.4270    -0.2170     0.7610 ca         1 5W7       0.033000
     20 C11          5.9290    -0.8660    -0.0440 c6         1 5W7       0.238500
     21 C10          7.1370    -1.7970    -0.0950 c6         1 5W7      -0.088400
     22 C31         -7.6810    -1.1780    -0.6930 c3         1 5W7       0.089000
     23 C30         -6.7880    -0.1490    -0.0200 c3         1 5W7       0.203800
     24 C33        -10.0810    -1.5130    -1.0000 c          1 5W7       0.601100
     25 C34        -11.4600    -1.1550    -0.5060 c3         1 5W7      -0.178100
     26 S8           3.8760    -0.8200     1.7780 sy         1 5W7       1.181600
     27 O9           4.7080    -0.0120     2.6510 o          1 5W7      -0.534500
     28 O10          3.0850    -1.9000     2.3490 o          1 5W7      -0.534500
     29 N11          4.8460    -1.5340     0.6760 n7         1 5W7      -0.905300
     30 O17          4.3560     1.9010     0.6490 os         1 5W7      -0.334100
     31 N21         -2.6390    -1.3010    -0.5870 nc         1 5W7      -0.281600
     32 N22         -2.0230     0.7010     0.1310 na         1 5W7       0.274900
     33 N24         -2.1110     1.9510     0.6020 nd         1 5W7      -0.511800
     34 N29         -5.4060    -0.4670    -0.2810 nu         1 5W7      -0.934200
     35 N32         -9.0610    -0.9120    -0.3640 ns         1 5W7      -0.513900
     36 O35         -9.9050    -2.2950    -1.9250 o          1 5W7      -0.598100
     37 H1           5.8500     3.2120     0.3370 h1         1 5W7       0.049367
     38 H2           4.6730     3.1530    -0.9880 h1         1 5W7       0.049367
     39 H3           4.2650     3.9820     0.5330 h1         1 5W7       0.049367
     40 H4          -0.9150    -2.9310    -1.7860 hc         1 5W7       0.049700
     41 H5           0.5420    -2.0520    -1.3190 hc         1 5W7       0.049700
     42 H6          -0.2790    -3.0850    -0.1550 hc         1 5W7       0.049700
     43 H7          -5.4690     2.0910     0.7120 ha         1 5W7       0.144000
     44 H8           9.7690    -0.7250    -3.0070 hn         1 5W7       0.394500
     45 H9           8.7290     0.1400    -3.8840 hn         1 5W7       0.394500
     46 H11          7.5520    -1.6510    -2.7910 h1         1 5W7       0.013700
     47 H12          6.9790     1.1220    -1.6830 hc         1 5W7       0.049950
     48 H13          6.3640     0.4840    -3.2000 hc         1 5W7       0.049950
     49 H14          9.1360    -1.8470    -0.8980 hc         1 5W7       0.049950
     50 H15          8.6400    -0.2660    -0.3130 hc         1 5W7       0.049950
     51 H16          4.6650     0.2350    -1.4170 hc         1 5W7       0.046950
     52 H17          5.1790    -1.3350    -2.0030 hc         1 5W7       0.046950
     53 H18          0.1290     2.4340    -0.8770 ha         1 5W7       0.127000
     54 H19          2.3720     3.2720    -0.5570 ha         1 5W7       0.122000
     55 H20          1.1510    -1.1830     1.1600 ha         1 5W7       0.148000
     56 H21          6.2080     0.0220     0.5260 h1         1 5W7       0.084700
     57 H22          6.8490    -2.7340    -0.5850 hc         1 5W7       0.046950
     58 H23          7.4440    -2.0530     0.9210 hc         1 5W7       0.046950
     59 H24         -7.5420    -1.1270    -1.7740 h1         1 5W7       0.062700
     60 H25         -7.3940    -2.1850    -0.3730 h1         1 5W7       0.062700
     61 H26         -7.0190     0.8430    -0.4140 h1         1 5W7       0.051700
     62 H27         -6.9790    -0.1250     1.0600 h1         1 5W7       0.051700
     63 H28        -12.0320    -0.7150    -1.3230 hc         1 5W7       0.062033
     64 H29        -11.9800    -2.0620    -0.1980 hc         1 5W7       0.062033
     65 H30        -11.4590    -0.4580     0.3290 hc         1 5W7       0.062033
     66 H31          4.3830    -2.2800     0.1680 hn         1 5W7       0.484000
     67 H32         -5.1690    -1.4180    -0.5230 hn         1 5W7       0.524000
     68 H33         -9.2600    -0.3320     0.4350 hn         1 5W7       0.314500
     69 CL1         -3.4860     3.9630     1.3750 cl         1 5W7      -0.145000
@<TRIPOS>BOND
     1     1    30 1   
     2     1    37 1   
     3     1    38 1   
     4     1    39 1   
     5     2     3 1   
     6     2     9 2   
     7     2    31 1   
     8     3    40 1   
     9     3    41 1   
    10     3    42 1   
    11     4    17 1   
    12     4    31 2   
    13     4    32 1   
    14     5     6 1   
    15     5    33 2   
    16     5    69 1   
    17     6    17 2   
    18     6    43 1   
    19     7    11 1   
    20     7    44 1   
    21     7    45 1   
    22     8     9 1   
    23     8    15 ar  
    24     8    19 ar  
    25     9    32 1   
    26    10    16 ar  
    27    10    18 ar  
    28    10    30 1   
    29    11    12 1   
    30    11    13 1   
    31    11    46 1   
    32    12    14 1   
    33    12    47 1   
    34    12    48 1   
    35    13    21 1   
    36    13    49 1   
    37    13    50 1   
    38    14    20 1   
    39    14    51 1   
    40    14    52 1   
    41    15    16 ar  
    42    15    53 1   
    43    16    54 1   
    44    17    34 1   
    45    18    19 ar  
    46    18    26 1   
    47    19    55 1   
    48    20    21 1   
    49    20    29 1   
    50    20    56 1   
    51    21    57 1   
    52    21    58 1   
    53    22    23 1   
    54    22    35 1   
    55    22    59 1   
    56    22    60 1   
    57    23    34 1   
    58    23    61 1   
    59    23    62 1   
    60    24    25 1   
    61    24    35 1   
    62    24    36 2   
    63    25    63 1   
    64    25    64 1   
    65    25    65 1   
    66    26    27 2   
    67    26    28 2   
    68    26    29 1   
    69    29    66 1   
    70    32    33 1   
    71    34    67 1   
    72    35    68 1   
@<TRIPOS>SUBSTRUCTURE
     1 5W7         1 TEMP              0 ****  ****    0 ROOT
