@<TRIPOS>MOLECULE
5W7
   69    72     1     0     0
SMALL
No Charge or Current Charge


@<TRIPOS>ATOM
      1 C18          4.2770     3.8650    -0.3360 c3         1 5W7       0.150900
      2 C19         -1.6040    -1.1490    -0.5750 cc         1 5W7       0.062400
      3 C20         -0.7560    -2.3340    -0.9640 c3         1 5W7      -0.018900
      4 C23         -3.4590    -0.1560    -0.1460 cd         1 5W7      -0.168000
      5 C25         -3.8780     2.3570     0.6110 cc         1 5W7       0.465000
      6 C26         -5.0090     1.4870     0.5030 cc         1 5W7      -0.320000
      7 N1          10.4520    -1.7170    -1.4940 n8         1 5W7      -0.998200
      8 C2           0.1360     0.7810    -0.2840 ca         1 5W7      -0.077800
      9 C1          -1.2240     0.1740    -0.3590 cd         1 5W7      -0.062300
     10 C5           2.7380     1.9370    -0.1610 ca         1 5W7       0.242100
     11 C9           9.0000    -1.5110    -1.6320 c6         1 5W7       0.161500
     12 C8           8.6690     0.0000    -1.6980 c6         1 5W7      -0.073400
     13 C13          8.2410    -2.1900    -0.4650 c6         1 5W7      -0.073400
     14 C12          7.1400     0.2310    -1.8090 c6         1 5W7      -0.088400
     15 C3           0.3320     2.1600    -0.5160 ca         1 5W7       0.015000
     16 C4           1.6140     2.7300    -0.4590 ca         1 5W7      -0.227000
     17 C27         -4.8090     0.1930     0.1320 cd         1 5W7       0.438000
     18 C6           2.5600     0.5650     0.0800 ca         1 5W7      -0.345500
     19 C7           1.2710    -0.0050     0.0150 ca         1 5W7       0.033000
     20 C11          6.3710    -0.4340    -0.6370 c6         1 5W7       0.238500
     21 C10          6.7120    -1.9510    -0.5720 c6         1 5W7      -0.088400
     22 C31         -8.0430    -1.8540     0.0750 c3         1 5W7       0.089000
     23 C30         -7.2400    -0.5470     0.2880 c3         1 5W7       0.203800
     24 C33        -10.3710    -1.0000    -0.3960 c          1 5W7       0.601100
     25 C34        -11.7980    -0.9840     0.1340 c3         1 5W7      -0.178100
     26 S8           3.9570    -0.4730     0.4990 sy         1 5W7       1.181600
     27 O9           4.6570     0.1040     1.6480 o          1 5W7      -0.534500
     28 O10          3.5470    -1.8790     0.4470 o          1 5W7      -0.534500
     29 N11          4.9270    -0.1980    -0.8330 n7         1 5W7      -0.905300
     30 O17          4.0140     2.4650    -0.1310 os         1 5W7      -0.334100
     31 N21         -2.9640    -1.3380    -0.4660 nc         1 5W7      -0.281600
     32 N22         -2.4490     0.7680    -0.0880 na         1 5W7       0.274900
     33 N24         -2.6000     2.0660     0.3640 nd         1 5W7      -0.511800
     34 N29         -5.7990    -0.7440     0.0390 nu         1 5W7      -0.934200
     35 N32         -9.4770    -1.7100     0.3720 ns         1 5W7      -0.513900
     36 O35        -10.0450    -0.4270    -1.4250 o          1 5W7      -0.598100
     37 H1           5.3530     4.0640    -0.2540 h1         1 5W7       0.049367
     38 H2           3.9480     4.1830    -1.3330 h1         1 5W7       0.049367
     39 H3           3.7610     4.4730     0.4180 h1         1 5W7       0.049367
     40 H4          -1.3490    -3.0830    -1.5030 hc         1 5W7       0.049700
     41 H5           0.0640    -2.0340    -1.6260 hc         1 5W7       0.049700
     42 H6          -0.3330    -2.8220    -0.0790 hc         1 5W7       0.049700
     43 H7          -5.9930     1.8680     0.7420 ha         1 5W7       0.144000
     44 H8          10.6470    -2.7240    -1.5470 hn         1 5W7       0.394500
     45 H9          10.9180    -1.3410    -2.3270 hn         1 5W7       0.394500
     46 H11          8.6960    -1.9840    -2.5780 h1         1 5W7       0.013700
     47 H12          9.0540     0.5100    -0.8030 hc         1 5W7       0.049950
     48 H13          9.1720     0.4590    -2.5600 hc         1 5W7       0.049950
     49 H14          8.4430    -3.2700    -0.4620 hc         1 5W7       0.049950
     50 H15          8.6050    -1.8010     0.4970 hc         1 5W7       0.049950
     51 H16          6.9360     1.3100    -1.8250 hc         1 5W7       0.046950
     52 H17          6.7790    -0.1690    -2.7670 hc         1 5W7       0.046950
     53 H18         -0.5000     2.8020    -0.7870 ha         1 5W7       0.127000
     54 H19          1.7120     3.7910    -0.6640 ha         1 5W7       0.122000
     55 H20          1.1510    -1.0580     0.2460 ha         1 5W7       0.148000
     56 H21          6.7180     0.0470     0.2930 h1         1 5W7       0.084700
     57 H22          6.3220    -2.4580    -1.4650 hc         1 5W7       0.046950
     58 H23          6.2230    -2.4190     0.2910 hc         1 5W7       0.046950
     59 H24         -7.9300    -2.1860    -0.9660 h1         1 5W7       0.062700
     60 H25         -7.6340    -2.6380     0.7260 h1         1 5W7       0.062700
     61 H26         -7.6300     0.2290    -0.3850 h1         1 5W7       0.051700
     62 H27         -7.3950    -0.2030     1.3190 h1         1 5W7       0.051700
     63 H28        -12.4800    -0.4110    -0.5040 hc         1 5W7       0.062033
     64 H29        -12.1410    -2.0170     0.2670 hc         1 5W7       0.062033
     65 H30        -11.7930    -0.6060     1.1630 hc         1 5W7       0.062033
     66 H31          4.7620     0.8030    -0.9390 hn         1 5W7       0.484000
     67 H32         -5.4650    -1.6670    -0.2480 hn         1 5W7       0.524000
     68 H33         -9.8460    -2.1540     1.2060 hn         1 5W7       0.314500
     69 Cl1         -4.2360     3.9720     1.1360 cl         1 5W7      -0.145000
@<TRIPOS>BOND
     1     1    30 1   
     2     1    37 1   
     3     1    38 1   
     4     1    39 1   
     5     2     3 1   
     6     2     9 2   
     7     2    31 1   
     8     3    40 1   
     9     3    41 1   
    10     3    42 1   
    11     4    17 1   
    12     4    31 2   
    13     4    32 1   
    14     5     6 1   
    15     5    33 2   
    16     5    69 1   
    17     6    17 2   
    18     6    43 1   
    19     7    11 1   
    20     7    44 1   
    21     7    45 1   
    22     8     9 1   
    23     8    15 ar  
    24     8    19 ar  
    25     9    32 1   
    26    10    16 ar  
    27    10    18 ar  
    28    10    30 1   
    29    11    12 1   
    30    11    13 1   
    31    11    46 1   
    32    12    14 1   
    33    12    47 1   
    34    12    48 1   
    35    13    21 1   
    36    13    49 1   
    37    13    50 1   
    38    14    20 1   
    39    14    51 1   
    40    14    52 1   
    41    15    16 ar  
    42    15    53 1   
    43    16    54 1   
    44    17    34 1   
    45    18    19 ar  
    46    18    26 1   
    47    19    55 1   
    48    20    21 1   
    49    20    29 1   
    50    20    56 1   
    51    21    57 1   
    52    21    58 1   
    53    22    23 1   
    54    22    35 1   
    55    22    59 1   
    56    22    60 1   
    57    23    34 1   
    58    23    61 1   
    59    23    62 1   
    60    24    25 1   
    61    24    35 1   
    62    24    36 2   
    63    25    63 1   
    64    25    64 1   
    65    25    65 1   
    66    26    27 2   
    67    26    28 2   
    68    26    29 1   
    69    29    66 1   
    70    32    33 1   
    71    34    67 1   
    72    35    68 1   
@<TRIPOS>SUBSTRUCTURE
     1 5W7         1 TEMP              0 ****  ****    0 ROOT
