@<TRIPOS>MOLECULE
5W8
   64    66     1     0     0
SMALL
No Charge or Current Charge


@<TRIPOS>ATOM
      1 C10         -8.2610    -2.6920     0.0070 c3         1 5W8      -0.087100
      2 C19          0.8300    -1.4250     0.1330 cc         1 5W8       0.063400
      3 C23          2.5800    -0.2320     0.2970 cd         1 5W8      -0.168000
      4 C1           0.3640    -0.1180     0.1950 cd         1 5W8      -0.067300
      5 C2          -1.0330     0.3830     0.0520 ca         1 5W8      -0.072800
      6 C3          -1.4190     1.6240     0.6050 ca         1 5W8       0.011000
      7 C4          -2.7380     2.0910     0.4860 ca         1 5W8      -0.222000
      8 C5          -3.7080     1.3330    -0.1970 ca         1 5W8       0.227100
      9 C6          -3.3380     0.1030    -0.7630 ca         1 5W8      -0.347500
     10 C7          -2.0130    -0.3630    -0.6380 ca         1 5W8       0.039000
     11 C8          -5.7150    -2.2800     0.3460 c3         1 5W8       0.231500
     12 C9          -7.1120    -2.4280     1.0060 c3         1 5W8      -0.065400
     13 C11         -4.5870    -2.1630     1.4180 c3         1 5W8       0.130600
     14 C18         -5.4810     2.9930     0.2660 c3         1 5W8       0.155900
     15 O9          -5.1400    -0.0970    -2.7340 o          1 5W8      -0.536500
     16 O10         -3.9550    -2.2120    -1.9220 o          1 5W8      -0.536500
     17 N11         -5.7230    -1.0830    -0.5180 n7         1 5W8      -0.880300
     18 N21          2.1900    -1.4890     0.2170 nc         1 5W8      -0.283600
     19 N22          1.5270     0.6560     0.2760 na         1 5W8       0.275900
     20 N24          1.6230     2.0330     0.2830 nc         1 5W8      -0.518800
     21 C25          2.8980     2.4320     0.3590 cd         1 5W8       0.468000
     22 C26          4.0150     1.6240     0.4110 cc         1 5W8      -0.322000
     23 C27          3.9090     0.2640     0.3770 cd         1 5W8       0.442000
     24 Cl1          3.1210     4.1500     0.3920 cl         1 5W8      -0.146000
     25 N29          4.9700    -0.5970     0.4050 nu         1 5W8      -0.933200
     26 C30          6.4040    -0.2480     0.4510 c3         1 5W8       0.195800
     27 C31          7.3010    -1.5110     0.4660 c3         1 5W8       0.088000
     28 N32          8.7350    -1.2030     0.5720 ns         1 5W8      -0.511900
     29 C33          9.4940    -0.6370    -0.4280 c          1 5W8       0.599100
     30 C34         10.9530    -0.4000    -0.0660 c3         1 5W8      -0.179100
     31 O35          9.0310    -0.3510    -1.5220 o          1 5W8      -0.597100
     32 O12         -4.6500    -0.8880     2.0880 oh         1 5W8      -0.661000
     33 H1          -8.3880    -1.8480    -0.6810 hc         1 5W8       0.039033
     34 H2          -8.0620    -3.5950    -0.5830 hc         1 5W8       0.039033
     35 H3          -9.2060    -2.8370     0.5440 hc         1 5W8       0.039033
     36 H4          -0.7150     2.2230     1.1730 ha         1 5W8       0.128000
     37 H5          -2.9860     3.0420     0.9460 ha         1 5W8       0.122000
     38 H6          -1.7360    -1.2940    -1.1220 ha         1 5W8       0.150000
     39 H7          -5.5440    -3.1940    -0.2410 h1         1 5W8       0.069700
     40 H8          -7.3440    -1.5280     1.5880 hc         1 5W8       0.047200
     41 H9          -7.0780    -3.2610     1.7190 hc         1 5W8       0.047200
     42 H10         -4.6890    -2.9830     2.1410 h1         1 5W8       0.029200
     43 H11         -3.6100    -2.2820     0.9300 h1         1 5W8       0.029200
     44 H12         -4.9460     3.8440    -0.1740 h1         1 5W8       0.048367
     45 H13         -6.5510     3.1250     0.0660 h1         1 5W8       0.048367
     46 H14         -5.3350     3.0070     1.3540 h1         1 5W8       0.048367
     47 H15          0.6370    -3.5430     0.5180 hc         1 5W8       0.050367
     48 H16         -0.8790    -2.6500     0.6380 hc         1 5W8       0.050367
     49 H17         -0.1680    -2.9990    -0.9580 hc         1 5W8       0.050367
     50 H18         -5.4810    -0.3050     0.0990 hn         1 5W8       0.506000
     51 H19          4.9900     2.0890     0.4700 ha         1 5W8       0.145000
     52 H20          4.6990    -1.5810     0.3510 hn         1 5W8       0.522000
     53 H21          6.6650     0.3680    -0.4210 h1         1 5W8       0.058700
     54 H22          6.6150     0.3440     1.3520 h1         1 5W8       0.058700
     55 H23          7.0200    -2.1410     1.3200 h1         1 5W8       0.064200
     56 H24          7.1300    -2.0900    -0.4520 h1         1 5W8       0.064200
     57 H25          9.2120    -1.4090     1.4430 hn         1 5W8       0.317500
     58 H26         11.0010     0.2110     0.8420 hc         1 5W8       0.062700
     59 H27         11.3970    -1.3450     0.2650 hc         1 5W8       0.062700
     60 H28         11.5230     0.0500    -0.8870 hc         1 5W8       0.062700
     61 H29         -3.9400    -0.8820     2.7680 ho         1 5W8       0.444000
     62 S8          -4.5260    -0.8880    -1.6640 sy         1 5W8       1.173600
     63 O17         -5.0190     1.7510    -0.2960 os         1 5W8      -0.349100
     64 C20          0.0600    -2.7210     0.0770 c3         1 5W8      -0.018900
@<TRIPOS>BOND
     1     1    12 1   
     2     1    33 1   
     3     1    34 1   
     4     1    35 1   
     5     2     4 2   
     6     2    18 1   
     7     2    64 1   
     8     3    18 2   
     9     3    19 1   
    10     3    23 1   
    11     4     5 1   
    12     4    19 1   
    13     5     6 ar  
    14     5    10 ar  
    15     6     7 ar  
    16     6    36 1   
    17     7     8 ar  
    18     7    37 1   
    19     8     9 ar  
    20     8    63 1   
    21     9    10 ar  
    22     9    62 1   
    23    10    38 1   
    24    11    12 1   
    25    11    13 1   
    26    11    17 1   
    27    11    39 1   
    28    12    40 1   
    29    12    41 1   
    30    13    32 1   
    31    13    42 1   
    32    13    43 1   
    33    14    44 1   
    34    14    45 1   
    35    14    46 1   
    36    14    63 1   
    37    15    62 2   
    38    16    62 2   
    39    17    50 1   
    40    17    62 1   
    41    19    20 1   
    42    20    21 2   
    43    21    22 1   
    44    21    24 1   
    45    22    23 2   
    46    22    51 1   
    47    23    25 1   
    48    25    26 1   
    49    25    52 1   
    50    26    27 1   
    51    26    53 1   
    52    26    54 1   
    53    27    28 1   
    54    27    55 1   
    55    27    56 1   
    56    28    29 1   
    57    28    57 1   
    58    29    30 1   
    59    29    31 2   
    60    30    58 1   
    61    30    59 1   
    62    30    60 1   
    63    32    61 1   
    64    47    64 1   
    65    48    64 1   
    66    49    64 1   
@<TRIPOS>SUBSTRUCTURE
     1 5W8         1 TEMP              0 ****  ****    0 ROOT
