@<TRIPOS>MOLECULE
5W8
   64    66     1     0     0
SMALL
bcc


@<TRIPOS>ATOM
      1 C10         -6.6790    -3.7170    -0.7670 c3         1 5W8      -0.087100
      2 C19          0.7580    -1.4330     0.4150 cc         1 5W8       0.063400
      3 C23          2.5450    -0.2830     0.3040 cd         1 5W8      -0.117300
      4 C1           0.3490    -0.1170     0.2740 cd         1 5W8      -0.067300
      5 C2          -0.9810     0.4730     0.2020 ca         1 5W8      -0.072800
      6 C3          -1.3260     1.6260     0.9070 ca         1 5W8      -0.007000
      7 C4          -2.6050     2.1530     0.8560 ca         1 5W8      -0.240000
      8 C5          -3.5880     1.5350     0.0880 ca         1 5W8       0.227100
      9 C6          -3.2490     0.3750    -0.6210 ca         1 5W8      -0.347500
     10 C7          -1.9660    -0.1410    -0.5690 ca         1 5W8       0.021000
     11 C8          -5.5010    -1.8450     0.4810 c3         1 5W8       0.231500
     12 C9          -6.6560    -2.8450     0.4790 c3         1 5W8      -0.065400
     13 C11         -5.3220    -1.1390     1.8170 c3         1 5W8       0.107400
     14 C18         -5.3030     2.9840     0.8570 c3         1 5W8       0.132700
     15 O9          -5.0290     0.4980    -2.5530 o          1 5W8      -0.607300
     16 O10         -3.8670    -1.6760    -2.0910 o          1 5W8      -0.607300
     17 N11         -5.7000    -0.8820    -0.6060 n7         1 5W8      -0.825100
     18 N21          2.1090    -1.5180     0.4320 nc         1 5W8      -0.283600
     19 N22          1.5130     0.6030     0.2090 na         1 5W8       0.225200
     20 N24          1.6130     1.9280     0.0500 nc         1 5W8      -0.518800
     21 C25          2.8370     2.3480    -0.0010 cd         1 5W8       0.533300
     22 C26          4.0090     1.5830     0.0840 cc         1 5W8      -0.405300
     23 C27          3.8800     0.2120     0.2500 cd         1 5W8       0.303600
     24 CL1          3.0080     4.0550    -0.2060 cl         1 5W8      -0.146000
     25 N29          4.8860    -0.6550     0.3620 nu         1 5W8      -0.739600
     26 C30          6.2790    -0.2910     0.2420 c3         1 5W8       0.195800
     27 C31          7.1520    -1.4480     0.7200 c3         1 5W8       0.088000
     28 N32          8.5550    -1.1520     0.5930 ns         1 5W8      -0.578900
     29 C33          9.2470    -1.3440    -0.5450 c          1 5W8       0.666100
     30 C34         10.7010    -0.9500    -0.4970 c3         1 5W8      -0.179100
     31 O35          8.7360    -1.8110    -1.5550 o          1 5W8      -0.597100
     32 O12         -6.4600    -0.3460     2.0620 oh         1 5W8      -0.598800
     33 H1          -6.7520    -3.1150    -1.6730 hc         1 5W8       0.039033
     34 H2          -5.7710    -4.3190    -0.8410 hc         1 5W8       0.039033
     35 H3          -7.5290    -4.3980    -0.7490 hc         1 5W8       0.039033
     36 H4          -0.5920     2.1240     1.5250 ha         1 5W8       0.146000
     37 H5          -2.8250     3.0450     1.4260 ha         1 5W8       0.140000
     38 H6          -1.7270    -1.0290    -1.1370 ha         1 5W8       0.168000
     39 H7          -4.5780    -2.3980     0.2860 h1         1 5W8       0.069700
     40 H8          -7.6040    -2.3110     0.5820 hc         1 5W8       0.047200
     41 H9          -6.5590    -3.4760     1.3670 hc         1 5W8       0.047200
     42 H10         -5.1810    -1.9040     2.5920 h1         1 5W8       0.029200
     43 H11         -4.4060    -0.5370     1.7960 h1         1 5W8       0.029200
     44 H12         -4.7990     3.9290     0.6490 h1         1 5W8       0.048367
     45 H13         -6.3660     3.0980     0.6620 h1         1 5W8       0.048367
     46 H14         -5.1570     2.7200     1.9070 h1         1 5W8       0.048367
     47 H15          0.3840    -3.3830     1.1820 hc         1 5W8       0.050367
     48 H16         -1.0680    -2.4000     0.9880 hc         1 5W8       0.050367
     49 H17         -0.2870    -3.1120    -0.4190 hc         1 5W8       0.050367
     50 H18         -6.3110    -0.1080    -0.3670 hn         1 5W8       0.450800
     51 H19          4.9730     2.0640     0.0130 ha         1 5W8       0.163000
     52 H20          4.6460    -1.6350     0.3700 hn         1 5W8       0.466800
     53 H21          6.5270    -0.0350    -0.7930 h1         1 5W8       0.058700
     54 H22          6.4800     0.5890     0.8570 h1         1 5W8       0.058700
     55 H23          6.9400    -1.6560     1.7680 h1         1 5W8       0.064200
     56 H24          6.9170    -2.3500     0.1530 h1         1 5W8       0.064200
     57 H25          9.0180    -0.7320     1.3820 hn         1 5W8       0.317500
     58 H26         11.0310    -0.6090     0.4820 hc         1 5W8       0.062700
     59 H27         11.3150    -1.8000    -0.7930 hc         1 5W8       0.062700
     60 H28         10.8820    -0.1530    -1.2190 hc         1 5W8       0.062700
     61 H29         -6.2950     0.2010     2.8340 ho         1 5W8       0.405000
     62 S8          -4.4790    -0.4510    -1.5990 sy         1 5W8       1.315200
     63 O17         -4.8520     1.9520    -0.0060 os         1 5W8      -0.325900
     64 C20         -0.1010    -2.6420     0.5480 c3         1 5W8      -0.018900
@<TRIPOS>BOND
     1     1    12 1   
     2     1    33 1   
     3     1    34 1   
     4     1    35 1   
     5     2     4 2   
     6     2    18 1   
     7     2    64 1   
     8     3    18 2   
     9     3    19 1   
    10     3    23 1   
    11     4     5 1   
    12     4    19 1   
    13     5     6 ar  
    14     5    10 ar  
    15     6     7 ar  
    16     6    36 1   
    17     7     8 ar  
    18     7    37 1   
    19     8     9 ar  
    20     8    63 1   
    21     9    10 ar  
    22     9    62 1   
    23    10    38 1   
    24    11    12 1   
    25    11    13 1   
    26    11    17 1   
    27    11    39 1   
    28    12    40 1   
    29    12    41 1   
    30    13    32 1   
    31    13    42 1   
    32    13    43 1   
    33    14    44 1   
    34    14    45 1   
    35    14    46 1   
    36    14    63 1   
    37    15    62 2   
    38    16    62 2   
    39    17    50 1   
    40    17    62 1   
    41    19    20 1   
    42    20    21 2   
    43    21    22 1   
    44    21    24 1   
    45    22    23 2   
    46    22    51 1   
    47    23    25 1   
    48    25    26 1   
    49    25    52 1   
    50    26    27 1   
    51    26    53 1   
    52    26    54 1   
    53    27    28 1   
    54    27    55 1   
    55    27    56 1   
    56    28    29 1   
    57    28    57 1   
    58    29    30 1   
    59    29    31 2   
    60    30    58 1   
    61    30    59 1   
    62    30    60 1   
    63    32    61 1   
    64    47    64 1   
    65    48    64 1   
    66    49    64 1   
@<TRIPOS>SUBSTRUCTURE
     1 5W8         1 TEMP              0 ****  ****    0 ROOT
