@<TRIPOS>MOLECULE
5W9
   62    65     1     0     0
SMALL
No Charge or Current Charge


@<TRIPOS>ATOM
      1 C1           0.1560    -0.1610    -0.0290 cc         1 5W9      -0.064300
      2 C3          -1.4310    -1.7990    -1.0330 ca         1 5W9       0.017000
      3 C4          -2.7130    -2.3600    -1.1360 ca         1 5W9      -0.225000
      4 C5          -3.7740    -1.8850    -0.3350 ca         1 5W9       0.240100
      5 C6          -3.5290    -0.8390     0.5790 ca         1 5W9      -0.343500
      6 O10         -4.1920     0.5410     2.7700 o          1 5W9      -0.534000
      7 N11         -5.5380     1.0380     0.6840 n3         1 5W9      -0.739500
      8 C12         -6.2300     0.5430    -0.5440 c6         1 5W9       0.169300
      9 C13         -6.9800     1.6900    -1.2800 c6         1 5W9       0.151600
     10 C14         -4.6560     2.2000     0.3580 c6         1 5W9       0.169300
     11 C15         -5.4340     3.3140    -0.4010 c6         1 5W9       0.151600
     12 C18         -5.3680    -3.4790    -1.3590 c3         1 5W9       0.151900
     13 C20         -0.5240     2.3530    -0.1680 c3         1 5W9      -0.017900
     14 C23          2.3610     0.1980     0.0090 cc         1 5W9      -0.166000
     15 N24          1.5800    -2.1220     0.0200 nc         1 5W9      -0.517800
     16 C26          3.9880    -1.5370     0.0790 cd         1 5W9      -0.317000
     17 C30          6.1340     0.6280     0.0990 c3         1 5W9       0.194800
     18 C31          6.8640     1.9940     0.1170 c3         1 5W9       0.091000
     19 C33          9.1370     1.4110    -0.8140 c          1 5W9       0.600100
     20 C34         10.6200     1.3560    -0.4740 c3         1 5W9      -0.180100
     21 C2          -1.1830    -0.7500    -0.1310 ca         1 5W9      -0.073800
     22 C7          -2.2350    -0.2830     0.6770 ca         1 5W9       0.032000
     23 O9          -5.8660    -1.1650     1.9100 o          1 5W9      -0.534000
     24 O16         -6.0670     2.7710    -1.5840 os         1 5W9      -0.446000
     25 O17         -5.0420    -2.4180    -0.4430 os         1 5W9      -0.339100
     26 C19          0.4340     1.1930    -0.0620 cd         1 5W9       0.062400
     27 N21          1.8080     1.4070    -0.0220 nd         1 5W9      -0.285600
     28 N22          1.3870    -0.7570    -0.0230 na         1 5W9       0.275900
     29 C25          2.8760    -2.4450     0.0610 cd         1 5W9       0.467000
     30 C27          3.7230    -0.2010     0.0560 cc         1 5W9       0.439000
     31 Cl1          3.2570    -4.1350     0.1010 cl         1 5W9      -0.145000
     32 N29          4.6670     0.7940     0.0760 nu         1 5W9      -0.933200
     33 N32          8.3280     1.8680     0.2010 ns         1 5W9      -0.512900
     34 O35          8.6990     1.0790    -1.9050 o          1 5W9      -0.597100
     35 H1          -0.6300    -2.1740    -1.6670 ha         1 5W9       0.130000
     36 H2          -2.8610    -3.1620    -1.8520 ha         1 5W9       0.122000
     37 H3          -5.5080     0.1010    -1.2460 h1         1 5W9       0.062450
     38 H4          -6.9600    -0.2410    -0.2930 h1         1 5W9       0.062450
     39 H5          -7.4170     1.3130    -2.2150 h1         1 5W9       0.056200
     40 H6          -7.7960     2.0700    -0.6480 h1         1 5W9       0.056200
     41 H7          -4.2330     2.6410     1.2720 h1         1 5W9       0.062450
     42 H8          -3.8110     1.8800    -0.2690 h1         1 5W9       0.062450
     43 H9          -6.2020     3.7470     0.2560 h1         1 5W9       0.056200
     44 H10         -4.7450     4.1180    -0.6960 h1         1 5W9       0.056200
     45 H11         -6.4290    -3.7410    -1.2720 h1         1 5W9       0.049700
     46 H12         -5.1770    -3.1720    -2.3950 h1         1 5W9       0.049700
     47 H13         -4.7770    -4.3780    -1.1410 h1         1 5W9       0.049700
     48 H14         -0.9290     2.6210     0.8150 hc         1 5W9       0.049033
     49 H15         -0.0290     3.2410    -0.5760 hc         1 5W9       0.049033
     50 H16         -1.3640     2.1130    -0.8300 hc         1 5W9       0.049033
     51 H17          5.0010    -1.9110     0.1140 ha         1 5W9       0.148000
     52 H18          6.4580     0.0570    -0.7810 h1         1 5W9       0.059200
     53 H19          6.4300     0.0590     0.9920 h1         1 5W9       0.059200
     54 H20          6.6100     2.5540    -0.7920 h1         1 5W9       0.063200
     55 H21          6.5180     2.5760     0.9810 h1         1 5W9       0.063200
     56 H22         11.2310     0.9900    -1.3060 hc         1 5W9       0.062700
     57 H23         10.9460     2.3470    -0.1380 hc         1 5W9       0.062700
     58 H24         10.7570     0.7480     0.4270 hc         1 5W9       0.062700
     59 H25         -2.0350     0.5110     1.3930 ha         1 5W9       0.148000
     60 H26          4.2700     1.7350     0.0420 hn         1 5W9       0.517000
     61 H27          8.7870     2.1240     1.0680 hn         1 5W9       0.317500
     62 S8          -4.8170    -0.1720     1.6500 sy         1 5W9       1.176600
@<TRIPOS>BOND
     1     1    21 1   
     2     1    26 2   
     3     1    28 1   
     4     2     3 ar  
     5     2    21 ar  
     6     2    35 1   
     7     3     4 ar  
     8     3    36 1   
     9     4     5 ar  
    10     4    25 1   
    11     5    22 ar  
    12     5    62 1   
    13     6    62 2   
    14     7     8 1   
    15     7    10 1   
    16     7    62 1   
    17     8     9 1   
    18     8    37 1   
    19     8    38 1   
    20     9    24 1   
    21     9    39 1   
    22     9    40 1   
    23    10    11 1   
    24    10    41 1   
    25    10    42 1   
    26    11    24 1   
    27    11    43 1   
    28    11    44 1   
    29    12    25 1   
    30    12    45 1   
    31    12    46 1   
    32    12    47 1   
    33    13    26 1   
    34    13    48 1   
    35    13    49 1   
    36    13    50 1   
    37    14    27 2   
    38    14    28 1   
    39    14    30 1   
    40    15    28 1   
    41    15    29 2   
    42    16    29 1   
    43    16    30 2   
    44    16    51 1   
    45    17    18 1   
    46    17    32 1   
    47    17    52 1   
    48    17    53 1   
    49    18    33 1   
    50    18    54 1   
    51    18    55 1   
    52    19    20 1   
    53    19    33 1   
    54    19    34 2   
    55    20    56 1   
    56    20    57 1   
    57    20    58 1   
    58    21    22 ar  
    59    22    59 1   
    60    23    62 2   
    61    26    27 1   
    62    29    31 1   
    63    30    32 1   
    64    32    60 1   
    65    33    61 1   
@<TRIPOS>SUBSTRUCTURE
     1 5W9         1 TEMP              0 ****  ****    0 ROOT
