@<TRIPOS>MOLECULE
5W9
   62    65     1     0     0
SMALL
bcc


@<TRIPOS>ATOM
      1 C1           0.2890     0.1110    -0.1970 cc         1 5W9      -0.064300
      2 C3          -1.2420    -1.6070    -1.1770 ca         1 5W9      -0.001000
      3 C4          -2.4900    -2.1950    -1.2790 ca         1 5W9      -0.243000
      4 C5          -3.5540    -1.7460    -0.4960 ca         1 5W9       0.240100
      5 C6          -3.3150    -0.7010     0.4090 ca         1 5W9      -0.343500
      6 O10         -3.9530     0.8600     2.3760 o          1 5W9      -0.604800
      7 N11         -5.5800     0.8770     0.4980 n3         1 5W9      -0.739500
      8 C12         -6.6800     0.2830    -0.2590 c6         1 5W9       0.169300
      9 C13         -7.6910     1.3810    -0.5370 c6         1 5W9       0.128400
     10 C14         -4.9640     2.0090    -0.1910 c6         1 5W9       0.169300
     11 C15         -6.0490     3.0260    -0.4990 c6         1 5W9       0.128400
     12 C18         -5.0840    -3.2600    -1.4940 c3         1 5W9       0.128700
     13 C20         -0.3160     2.6170    -0.1590 c3         1 5W9      -0.017900
     14 C23          2.4670     0.4100    -0.0670 cc         1 5W9      -0.115300
     15 N24          1.6740    -1.8670    -0.1770 nc         1 5W9      -0.517800
     16 C26          4.0400    -1.3780    -0.0110 cd         1 5W9      -0.400300
     17 C30          6.1790     0.6310     0.2640 c3         1 5W9       0.194800
     18 C31          7.0080     1.8860     0.0120 c3         1 5W9       0.091000
     19 C33          9.2540     1.1040    -0.5870 c          1 5W9       0.667100
     20 C34         10.6770     0.9580    -0.1110 c3         1 5W9      -0.180100
     21 C2          -1.0010    -0.5590    -0.2890 ca         1 5W9      -0.073800
     22 C7          -2.0560    -0.1290     0.5100 ca         1 5W9       0.014000
     23 O9          -5.4100    -1.1320     1.9840 o          1 5W9      -0.604800
     24 O16         -7.1050     2.4570    -1.2340 os         1 5W9      -0.399600
     25 O17         -4.7880    -2.2390    -0.5550 os         1 5W9      -0.315900
     26 C19          0.6140     1.4550    -0.1310 cd         1 5W9       0.062400
     27 N21          1.9560     1.6220    -0.0520 nd         1 5W9      -0.285600
     28 N22          1.4940    -0.5410    -0.1580 na         1 5W9       0.225200
     29 C25          2.9190    -2.2170    -0.1060 cd         1 5W9       0.532300
     30 C27          3.8280    -0.0080     0.0040 cc         1 5W9       0.300600
     31 CL1          3.1940    -3.9220    -0.1280 cl         1 5W9      -0.145000
     32 N29          4.7780     0.9250     0.0760 nu         1 5W9      -0.739600
     33 N32          8.4050     1.6720     0.2900 ns         1 5W9      -0.579900
     34 O35          8.9040     0.7440    -1.7020 o          1 5W9      -0.597100
     35 H1          -0.4490    -1.9720    -1.8150 ha         1 5W9       0.148000
     36 H2          -2.6260    -3.0020    -1.9850 ha         1 5W9       0.140000
     37 H3          -6.3290    -0.1430    -1.2040 h1         1 5W9       0.062450
     38 H4          -7.1530    -0.5040     0.3220 h1         1 5W9       0.062450
     39 H5          -8.4940     0.9850    -1.1600 h1         1 5W9       0.056200
     40 H6          -8.1300     1.7220     0.4100 h1         1 5W9       0.056200
     41 H7          -4.2160     2.4800     0.4450 h1         1 5W9       0.062450
     42 H8          -4.4760     1.6810    -1.1170 h1         1 5W9       0.062450
     43 H9          -6.4160     3.4540     0.4440 h1         1 5W9       0.056200
     44 H10         -5.6280     3.8350    -1.0980 h1         1 5W9       0.056200
     45 H11         -6.1400    -3.4850    -1.3720 h1         1 5W9       0.049700
     46 H12         -4.9060    -2.9280    -2.5190 h1         1 5W9       0.049700
     47 H13         -4.5030    -4.1640    -1.3010 h1         1 5W9       0.049700
     48 H14         -0.5510     2.9710     0.8470 hc         1 5W9       0.049033
     49 H15          0.1320     3.4500    -0.7000 hc         1 5W9       0.049033
     50 H16         -1.2560     2.3630    -0.6470 hc         1 5W9       0.049033
     51 H17          5.0280    -1.8060     0.0540 ha         1 5W9       0.166000
     52 H18          6.4840    -0.1500    -0.4360 h1         1 5W9       0.059200
     53 H19          6.3680     0.2590     1.2770 h1         1 5W9       0.059200
     54 H20          6.8790     2.2140    -1.0200 h1         1 5W9       0.063200
     55 H21          6.6620     2.6950     0.6570 h1         1 5W9       0.063200
     56 H22         11.0010    -0.0720    -0.2490 hc         1 5W9       0.062700
     57 H23         11.3260     1.5870    -0.7210 hc         1 5W9       0.062700
     58 H24         10.8200     1.2310     0.9330 hc         1 5W9       0.062700
     59 H25         -1.8900     0.6570     1.2340 ha         1 5W9       0.166000
     60 H26          4.4690     1.8790     0.1900 hn         1 5W9       0.461800
     61 H27          8.7420     1.9220     1.2040 hn         1 5W9       0.317500
     62 S8          -4.6060    -0.0510     1.4460 sy         1 5W9       1.318200
@<TRIPOS>BOND
     1     1    21 1   
     2     1    26 2   
     3     1    28 1   
     4     2     3 ar  
     5     2    21 ar  
     6     2    35 1   
     7     3     4 ar  
     8     3    36 1   
     9     4     5 ar  
    10     4    25 1   
    11     5    22 ar  
    12     5    62 1   
    13     6    62 2   
    14     7     8 1   
    15     7    10 1   
    16     7    62 1   
    17     8     9 1   
    18     8    37 1   
    19     8    38 1   
    20     9    24 1   
    21     9    39 1   
    22     9    40 1   
    23    10    11 1   
    24    10    41 1   
    25    10    42 1   
    26    11    24 1   
    27    11    43 1   
    28    11    44 1   
    29    12    25 1   
    30    12    45 1   
    31    12    46 1   
    32    12    47 1   
    33    13    26 1   
    34    13    48 1   
    35    13    49 1   
    36    13    50 1   
    37    14    27 2   
    38    14    28 1   
    39    14    30 1   
    40    15    28 1   
    41    15    29 2   
    42    16    29 1   
    43    16    30 2   
    44    16    51 1   
    45    17    18 1   
    46    17    32 1   
    47    17    52 1   
    48    17    53 1   
    49    18    33 1   
    50    18    54 1   
    51    18    55 1   
    52    19    20 1   
    53    19    33 1   
    54    19    34 2   
    55    20    56 1   
    56    20    57 1   
    57    20    58 1   
    58    21    22 ar  
    59    22    59 1   
    60    23    62 2   
    61    26    27 1   
    62    29    31 1   
    63    30    32 1   
    64    32    60 1   
    65    33    61 1   
@<TRIPOS>SUBSTRUCTURE
     1 5W9         1 TEMP              0 ****  ****    0 ROOT
