@<TRIPOS>MOLECULE
5WA
   45    46     1     0     0
SMALL
No Charge or Current Charge


@<TRIPOS>ATOM
      1 N1          -4.4890    -1.2460    -1.4430 nb         1 5WA      -0.294000
      2 C2          -5.5750    -0.8690    -0.7600 ca         1 5WA       0.432900
      3 N3          -5.6530     0.0180     0.2340 nb         1 5WA      -0.341000
      4 C4          -4.4990     0.5920     0.5850 ca         1 5WA       0.446900
      5 C5          -3.2770     0.2920    -0.0470 ca         1 5WA      -0.235000
      6 C6          -3.3260    -0.6640    -1.0870 ca         1 5WA       0.227300
      7 C1A          4.3240    -0.0760     3.6090 c3         1 5WA       0.144900
      8 C1B          1.7840    -0.6980    -3.3330 c3         1 5WA       0.144900
      9 C1C          5.6030    -2.2110     0.3930 c3         1 5WA       0.148900
     10 C1D         -2.0910    -1.0930    -1.8710 c3         1 5WA      -0.156400
     11 N1E         -6.7380    -1.4510    -1.1210 nv         1 5WA      -1.059900
     12 N1F         -4.6070     1.4910     1.5970 nv         1 5WA      -1.065900
     13 O1G          0.5070     3.2250     0.2550 oh         1 5WA      -0.644000
     14 C1H         -2.0380     0.9200     0.3350 cg         1 5WA      -0.056000
     15 C1I         -0.9790     1.4310     0.6380 c1         1 5WA      -0.208100
     16 C1J          2.4070     0.6490     1.5780 ca         1 5WA      -0.210500
     17 C1K          1.5720     0.4740    -0.6910 ca         1 5WA      -0.210500
     18 C1U          1.4620     1.0170     0.6040 ca         1 5WA      -0.049300
     19 C1V          3.4570    -0.2520     1.2850 ca         1 5WA       0.155100
     20 C1W          2.6060    -0.4310    -1.0080 ca         1 5WA       0.155100
     21 C1X          3.5600    -0.8040    -0.0300 ca         1 5WA       0.032100
     22 C1Y          0.3350     1.9980     0.9630 c3         1 5WA       0.312700
     23 H1A          4.4200     1.0180     3.6090 h1         1 5WA       0.042033
     24 H1AA         3.3820    -0.3500     4.1000 h1         1 5WA       0.042033
     25 H1AB         5.1490    -0.4870     4.2040 h1         1 5WA       0.042033
     26 H1B          2.0650    -1.2430    -4.2430 h1         1 5WA       0.042033
     27 H1BA         0.7710    -1.0090    -3.0500 h1         1 5WA       0.042033
     28 H1BB         1.7730     0.3740    -3.5700 h1         1 5WA       0.042033
     29 H1C          5.1970    -2.7640     1.2490 h1         1 5WA       0.034033
     30 H1CA         6.2350    -2.9010    -0.1800 h1         1 5WA       0.034033
     31 H1CB         6.2420    -1.3970     0.7570 h1         1 5WA       0.034033
     32 H1D         -1.6560    -0.2430    -2.4080 hc         1 5WA       0.056700
     33 H1DA        -1.3230    -1.4980    -1.2010 hc         1 5WA       0.056700
     34 H1DB        -2.3240    -1.8680    -2.6110 hc         1 5WA       0.056700
     35 HN1E        -6.7700    -1.9420    -2.0110 hn         1 5WA       0.498000
     36 HN1A        -7.6060    -1.0320    -0.7990 hn         1 5WA       0.498000
     37 HN1F        -5.5340     1.8370     1.8300 hn         1 5WA       0.499000
     38 HN1B        -3.8270     2.1240     1.7580 hn         1 5WA       0.499000
     39 HO1G         0.4270     2.9940    -0.6930 ho         1 5WA       0.449000
     40 H1J          2.3080     1.0810     2.5700 ha         1 5WA       0.124000
     41 H1K          0.8400     0.7610    -1.4390 ha         1 5WA       0.124000
     42 H1Y          0.3570     2.1850     2.0460 h1         1 5WA       0.087700
     43 O1N          4.3730    -0.5940     2.2670 os         1 5WA      -0.322600
     44 O1O          2.7190    -0.9800    -2.2760 os         1 5WA      -0.322600
     45 O1P          4.5460    -1.7040    -0.4400 os         1 5WA      -0.328100
@<TRIPOS>BOND
     1     1     2 ar  
     2     1     6 ar  
     3     2     3 ar  
     4     2    11 1   
     5     3     4 ar  
     6     4     5 ar  
     7     4    12 1   
     8     5     6 ar  
     9     5    14 1   
    10     6    10 1   
    11     7    23 1   
    12     7    24 1   
    13     7    25 1   
    14     7    43 1   
    15     8    26 1   
    16     8    27 1   
    17     8    28 1   
    18     8    44 1   
    19     9    29 1   
    20     9    30 1   
    21     9    31 1   
    22     9    45 1   
    23    10    32 1   
    24    10    33 1   
    25    10    34 1   
    26    11    35 1   
    27    11    36 1   
    28    12    37 1   
    29    12    38 1   
    30    13    22 1   
    31    13    39 1   
    32    14    15 3   
    33    15    22 1   
    34    16    18 ar  
    35    16    19 ar  
    36    16    40 1   
    37    17    18 ar  
    38    17    20 ar  
    39    17    41 1   
    40    18    22 1   
    41    19    21 ar  
    42    19    43 1   
    43    20    21 ar  
    44    20    44 1   
    45    21    45 1   
    46    22    42 1   
@<TRIPOS>SUBSTRUCTURE
     1 5WA         1 TEMP              0 ****  ****    0 ROOT
