@<TRIPOS>MOLECULE
5WA
   45    46     1     0     0
SMALL
bcc


@<TRIPOS>ATOM
      1 N1          -4.4330    -1.3280    -1.5020 nb         1 5WA      -0.820000
      2 C2          -5.5510    -0.8320    -0.9550 ca         1 5WA       0.958900
      3 N3          -5.6220     0.1260    -0.0330 nb         1 5WA      -0.867000
      4 C4          -4.4750     0.6390     0.3960 ca         1 5WA       0.775200
      5 C5          -3.2280     0.1860    -0.1120 ca         1 5WA      -0.365600
      6 C6          -3.2850    -0.8160    -1.0820 ca         1 5WA       0.555600
      7 C1A          4.7550     0.4940     3.3900 c3         1 5WA       0.121700
      8 C1B          1.7680    -0.8420    -2.9700 c3         1 5WA       0.121700
      9 C1C          4.8590    -2.4940    -0.0750 c3         1 5WA       0.125700
     10 C1D         -2.0360    -1.3360    -1.7160 c3         1 5WA      -0.156400
     11 N1E         -6.7110    -1.3730    -1.3650 nv         1 5WA      -0.949500
     12 N1F         -4.5320     1.5880     1.3380 nv         1 5WA      -0.955500
     13 O1G          0.4360     3.1330     0.8080 oh         1 5WA      -0.581800
     14 C1H         -2.0100     0.7370     0.3470 cg         1 5WA      -0.056000
     15 C1I         -0.9770     1.2120     0.7550 c1         1 5WA      -0.208100
     16 C1J          2.5370     0.8240     1.7000 ca         1 5WA      -0.228500
     17 C1K          1.5310     0.3810    -0.4490 ca         1 5WA      -0.228500
     18 C1U          1.4730     0.9450     0.8190 ca         1 5WA      -0.049300
     19 C1V          3.6780     0.1220     1.3140 ca         1 5WA       0.155100
     20 C1W          2.6710    -0.3160    -0.8420 ca         1 5WA       0.155100
     21 C1X          3.7510    -0.4410     0.0370 ca         1 5WA       0.032100
     22 C1Y          0.2820     1.7920     1.2260 c3         1 5WA       0.289500
     23 H1A          4.6610     1.5830     3.3670 h1         1 5WA       0.042033
     24 H1AA         3.9540     0.0830     4.0100 h1         1 5WA       0.042033
     25 H1AB         5.7110     0.2350     3.8380 h1         1 5WA       0.042033
     26 H1B          2.1150    -1.3470    -3.8680 h1         1 5WA       0.042033
     27 H1BA         0.8800    -1.3630    -2.6010 h1         1 5WA       0.042033
     28 H1BB         1.4960     0.1850    -3.2260 h1         1 5WA       0.042033
     29 H1C          4.0440    -3.0020    -0.5970 h1         1 5WA       0.034033
     30 H1CA         5.8050    -2.9010    -0.4260 h1         1 5WA       0.034033
     31 H1CB         4.7690    -2.6920     0.9950 h1         1 5WA       0.034033
     32 H1D         -1.7190    -0.6640    -2.5170 hc         1 5WA       0.056700
     33 H1DA        -1.2130    -1.3980    -1.0040 hc         1 5WA       0.056700
     34 H1DB        -2.2060    -2.3170    -2.1540 hc         1 5WA       0.056700
     35 HN1E        -6.7110    -1.9700    -2.1730 hn         1 5WA       0.442800
     36 HN1A        -7.5770    -0.9270    -1.1170 hn         1 5WA       0.442800
     37 HN1F        -5.4240     1.9840     1.5800 hn         1 5WA       0.443800
     38 HN1B        -3.7110     2.1130     1.5880 hn         1 5WA       0.443800
     39 HO1G         0.4930     3.1490    -0.1540 ho         1 5WA       0.410000
     40 H1J          2.4650     1.2710     2.6830 ha         1 5WA       0.142000
     41 H1K          0.6820     0.4770    -1.1130 ha         1 5WA       0.142000
     42 H1Y          0.2510     1.8350     2.3180 h1         1 5WA       0.087700
     43 O1N          4.7580    -0.0630     2.0910 os         1 5WA      -0.299400
     44 O1O          2.8330    -0.8980    -2.0420 os         1 5WA      -0.299400
     45 O1P          4.8730    -1.0990    -0.3530 os         1 5WA      -0.304900
@<TRIPOS>BOND
     1     1     2 ar  
     2     1     6 ar  
     3     2     3 ar  
     4     2    11 1   
     5     3     4 ar  
     6     4     5 ar  
     7     4    12 1   
     8     5     6 ar  
     9     5    14 1   
    10     6    10 1   
    11     7    23 1   
    12     7    24 1   
    13     7    25 1   
    14     7    43 1   
    15     8    26 1   
    16     8    27 1   
    17     8    28 1   
    18     8    44 1   
    19     9    29 1   
    20     9    30 1   
    21     9    31 1   
    22     9    45 1   
    23    10    32 1   
    24    10    33 1   
    25    10    34 1   
    26    11    35 1   
    27    11    36 1   
    28    12    37 1   
    29    12    38 1   
    30    13    22 1   
    31    13    39 1   
    32    14    15 3   
    33    15    22 1   
    34    16    18 ar  
    35    16    19 ar  
    36    16    40 1   
    37    17    18 ar  
    38    17    20 ar  
    39    17    41 1   
    40    18    22 1   
    41    19    21 ar  
    42    19    43 1   
    43    20    21 ar  
    44    20    44 1   
    45    21    45 1   
    46    22    42 1   
@<TRIPOS>SUBSTRUCTURE
     1 5WA         1 TEMP              0 ****  ****    0 ROOT
