@<TRIPOS>MOLECULE
5WB
   48    49     1     0     0
SMALL
bcc


@<TRIPOS>ATOM
      1 N1          -4.3170    -1.8580     1.0210 nb         1 5WB      -0.820000
      2 C2          -5.4440    -1.2650     0.5990 ca         1 5WB       0.961900
      3 N3          -5.5340    -0.1060    -0.0480 nb         1 5WB      -0.871000
      4 C4          -4.3970     0.5270    -0.3150 ca         1 5WB       0.780200
      5 C5          -3.1430    -0.0130     0.0790 ca         1 5WB      -0.369600
      6 C6          -3.1820    -1.2280     0.7640 ca         1 5WB       0.558600
      7 C1A          4.3950     0.6040    -3.5770 c3         1 5WB       0.122200
      8 C1B          1.9940    -1.4230     2.8450 c3         1 5WB       0.122200
      9 C1C          5.8740    -1.0570     0.4440 c3         1 5WB       0.125700
     10 C1E         -1.9190    -1.8560     1.2620 c3         1 5WB      -0.156400
     11 N1F         -6.5920    -1.9190     0.8410 nv         1 5WB      -0.955500
     12 N1G         -4.4690     1.6890    -0.9710 nv         1 5WB      -0.965500
     13 C1H         -1.9370     0.6690    -0.1940 cg         1 5WB      -0.056000
     14 C1I         -0.9060     1.2480    -0.4440 c1         1 5WB      -0.207100
     15 C1J          2.4570     0.9050    -1.5700 ca         1 5WB      -0.221000
     16 C1K          1.6550     0.2290     0.6060 ca         1 5WB      -0.221000
     17 O1Q          0.5690     3.0020     0.2270 os         1 5WB      -0.393600
     18 C1U          1.5240     0.9880    -0.5490 ca         1 5WB      -0.008300
     19 C1W          3.5440     0.0390    -1.4390 ca         1 5WB       0.152100
     20 C1X          2.7350    -0.6380     0.7390 ca         1 5WB       0.152100
     21 C1Y          3.6810    -0.7380    -0.2880 ca         1 5WB       0.032100
     22 C1Z          0.3610     1.9460    -0.6830 c3         1 5WB       0.288500
     23 H1A          4.4460     1.6830    -3.4130 h1         1 5WB       0.041533
     24 H1AA         5.2410     0.3040    -4.1910 h1         1 5WB       0.041533
     25 H1AB         3.4710     0.3700    -4.1120 h1         1 5WB       0.041533
     26 H1B          2.3380    -2.1440     3.5830 h1         1 5WB       0.041533
     27 H1BA         1.9100    -0.4450     3.3240 h1         1 5WB       0.041533
     28 H1BB         1.0060    -1.7280     2.4890 h1         1 5WB       0.041533
     29 H1C          6.6400    -1.8290     0.4380 h1         1 5WB       0.033367
     30 H1CA         6.2490    -0.1870    -0.1000 h1         1 5WB       0.033367
     31 H1CB         5.6780    -0.7660     1.4790 h1         1 5WB       0.033367
     32 H1D         -1.3800     3.7370     0.3680 h1         1 5WB       0.030367
     33 H1DA        -0.0590     4.8470     0.7700 h1         1 5WB       0.030367
     34 H1DB        -0.3920     4.4460    -0.9250 h1         1 5WB       0.030367
     35 H1E         -1.1380    -1.8470     0.5030 hc         1 5WB       0.058367
     36 H1EA        -1.5360    -1.2940     2.1170 hc         1 5WB       0.058367
     37 H1EB        -2.0980    -2.8800     1.5810 hc         1 5WB       0.058367
     38 HN1F        -6.5850    -2.7280     1.4360 hn         1 5WB       0.445300
     39 HN1A        -7.4710    -1.4620     0.6740 hn         1 5WB       0.445300
     40 HN1G        -5.3650     2.0970    -1.1720 hn         1 5WB       0.445300
     41 HN1B        -3.6470     2.2430    -1.1420 hn         1 5WB       0.445300
     42 H1J          2.3320     1.5140    -2.4550 ha         1 5WB       0.143500
     43 H1K          0.9040     0.3110     1.3800 ha         1 5WB       0.143500
     44 H1Z          0.3450     2.3390    -1.7110 h1         1 5WB       0.049700
     45 O1N          4.5030    -0.1200    -2.3670 os         1 5WB      -0.300900
     46 C1D         -0.3660     4.0490     0.0960 c3         1 5WB       0.121700
     47 O1O          2.9520    -1.4250     1.8060 os         1 5WB      -0.300900
     48 O1P          4.7190    -1.6070    -0.1760 os         1 5WB      -0.305900
@<TRIPOS>BOND
     1     1     2 ar  
     2     1     6 ar  
     3     2     3 ar  
     4     2    11 1   
     5     3     4 ar  
     6     4     5 ar  
     7     4    12 1   
     8     5     6 ar  
     9     5    13 1   
    10     6    10 1   
    11     7    23 1   
    12     7    24 1   
    13     7    25 1   
    14     7    45 1   
    15     8    26 1   
    16     8    27 1   
    17     8    28 1   
    18     8    47 1   
    19     9    29 1   
    20     9    30 1   
    21     9    31 1   
    22     9    48 1   
    23    10    35 1   
    24    10    36 1   
    25    10    37 1   
    26    11    38 1   
    27    11    39 1   
    28    12    40 1   
    29    12    41 1   
    30    13    14 3   
    31    14    22 1   
    32    15    18 ar  
    33    15    19 ar  
    34    15    42 1   
    35    16    18 ar  
    36    16    20 ar  
    37    16    43 1   
    38    17    22 1   
    39    17    46 1   
    40    18    22 1   
    41    19    21 ar  
    42    19    45 1   
    43    20    21 ar  
    44    20    47 1   
    45    21    48 1   
    46    22    44 1   
    47    32    46 1   
    48    33    46 1   
    49    34    46 1   
@<TRIPOS>SUBSTRUCTURE
     1 5WB         1 TEMP              0 ****  ****    0 ROOT
