@<TRIPOS>MOLECULE
5WB
   48    49     1     0     0
SMALL
No Charge or Current Charge


@<TRIPOS>ATOM
      1 N1          -4.0950    -1.8920     1.1240 nb         1 5WB      -0.294000
      2 C2          -5.2170    -1.5360     0.4890 ca         1 5WB       0.435900
      3 N3          -5.3970    -0.5190    -0.3550 nb         1 5WB      -0.345000
      4 C4          -4.3160     0.2280    -0.5930 ca         1 5WB       0.451900
      5 C5          -3.0670    -0.0270     0.0060 ca         1 5WB      -0.239000
      6 C6          -3.0070    -1.1340     0.8840 ca         1 5WB       0.230300
      7 C1A          4.1620     0.7310    -3.9280 c3         1 5WB       0.145400
      8 C1B          2.2730    -0.9780     3.0380 c3         1 5WB       0.145400
      9 C1C          5.3250    -2.1960     0.6380 c3         1 5WB       0.148900
     10 C1E         -1.7290    -1.5400     1.6100 c3         1 5WB      -0.156400
     11 N1F         -6.3060    -2.2950     0.7350 nv         1 5WB      -1.065900
     12 N1G         -4.5260     1.2560    -1.4550 nv         1 5WB      -1.075900
     13 C1H         -1.9070     0.7870    -0.2500 cg         1 5WB      -0.056000
     14 C1I         -0.9100     1.4500    -0.4440 c1         1 5WB      -0.207100
     15 C1J          2.3950     1.0870    -1.6600 ca         1 5WB      -0.203000
     16 C1K          1.8110     0.5290     0.6260 ca         1 5WB      -0.203000
     17 O1Q          0.4750     3.2050     0.3930 os         1 5WB      -0.440000
     18 C1U          1.5460     1.2520    -0.5530 ca         1 5WB      -0.008300
     19 C1W          3.4980     0.2090    -1.5970 ca         1 5WB       0.152100
     20 C1X          2.9050    -0.3620     0.7140 ca         1 5WB       0.152100
     21 C1Y          3.7660    -0.5240    -0.4150 ca         1 5WB       0.032100
     22 C1Z          0.3430     2.2010    -0.6360 c3         1 5WB       0.311700
     23 H1A          4.2190     1.8170    -3.7830 h1         1 5WB       0.041533
     24 H1AA         4.9460     0.4430    -4.6400 h1         1 5WB       0.041533
     25 H1AB         3.1910     0.4840    -4.3750 h1         1 5WB       0.041533
     26 H1B          2.6430    -1.6320     3.8370 h1         1 5WB       0.041533
     27 H1BA         2.2470     0.0480     3.4260 h1         1 5WB       0.041533
     28 H1BB         1.2510    -1.2900     2.7890 h1         1 5WB       0.041533
     29 H1C          6.2210    -2.7550     0.3420 h1         1 5WB       0.033367
     30 H1CA         5.5850    -1.5870     1.5130 h1         1 5WB       0.033367
     31 H1CB         4.5550    -2.9250     0.9190 h1         1 5WB       0.033367
     32 H1D         -1.4450     4.0640     0.3280 h1         1 5WB       0.030367
     33 H1DA        -0.1830     5.0740     1.0610 h1         1 5WB       0.030367
     34 H1DB        -0.2230     4.8540    -0.7010 h1         1 5WB       0.030367
     35 H1E         -0.9270    -1.7620     0.8970 hc         1 5WB       0.058367
     36 H1EA        -1.3820    -0.7350     2.2680 hc         1 5WB       0.058367
     37 H1EB        -1.8760    -2.4320     2.2300 hc         1 5WB       0.058367
     38 HN1F        -6.2830    -2.9170     1.5390 hn         1 5WB       0.500500
     39 HN1A        -7.2170    -1.9280     0.4690 hn         1 5WB       0.500500
     40 HN1G        -5.4860     1.5280    -1.6460 hn         1 5WB       0.500500
     41 HN1B        -3.8230     1.9890    -1.5020 hn         1 5WB       0.500500
     42 H1J          2.1800     1.6490    -2.5630 ha         1 5WB       0.125500
     43 H1K          1.1420     0.6770     1.4680 ha         1 5WB       0.125500
     44 H1Z          0.3230     2.6710    -1.6290 h1         1 5WB       0.049700
     45 O1N          4.3440     0.0370    -2.6810 os         1 5WB      -0.324100
     46 C1D         -0.3870     4.3510     0.2610 c3         1 5WB       0.144900
     47 O1O          3.1300    -1.0680     1.8850 os         1 5WB      -0.324100
     48 O1P          4.8780    -1.3690    -0.4510 os         1 5WB      -0.329100
@<TRIPOS>BOND
     1     1     2 ar  
     2     1     6 ar  
     3     2     3 ar  
     4     2    11 1   
     5     3     4 ar  
     6     4     5 ar  
     7     4    12 1   
     8     5     6 ar  
     9     5    13 1   
    10     6    10 1   
    11     7    23 1   
    12     7    24 1   
    13     7    25 1   
    14     7    45 1   
    15     8    26 1   
    16     8    27 1   
    17     8    28 1   
    18     8    47 1   
    19     9    29 1   
    20     9    30 1   
    21     9    31 1   
    22     9    48 1   
    23    10    35 1   
    24    10    36 1   
    25    10    37 1   
    26    11    38 1   
    27    11    39 1   
    28    12    40 1   
    29    12    41 1   
    30    13    14 3   
    31    14    22 1   
    32    15    18 ar  
    33    15    19 ar  
    34    15    42 1   
    35    16    18 ar  
    36    16    20 ar  
    37    16    43 1   
    38    17    22 1   
    39    17    46 1   
    40    18    22 1   
    41    19    21 ar  
    42    19    45 1   
    43    20    21 ar  
    44    20    47 1   
    45    21    48 1   
    46    22    44 1   
    47    32    46 1   
    48    33    46 1   
    49    34    46 1   
@<TRIPOS>SUBSTRUCTURE
     1 5WB         1 TEMP              0 ****  ****    0 ROOT
