@<TRIPOS>MOLECULE
5WC
   56    60     1     0     0
SMALL
No Charge or Current Charge


@<TRIPOS>ATOM
      1 C1           0.4790     4.6610     0.6830 cx         1 5WC      -0.107700
      2 C2          -0.8340     3.8740     0.9500 c5         1 5WC      -0.050400
      3 C3           1.5650     3.6350     0.6700 cx         1 5WC       0.035700
      4 C11         -4.5480     0.5950    -1.1770 ca         1 5WC      -0.145300
      5 C13          3.2300     1.1940     0.6930 c3         1 5WC       0.011600
      6 C16          4.0050    -1.0250    -0.2160 ca         1 5WC      -0.109200
      7 C17          4.7460    -2.0600     0.2590 ca         1 5WC      -0.148900
      8 C18          5.0930    -1.7090     1.6260 cc         1 5WC       0.293900
      9 C20          3.4900    -1.0320    -1.5230 ca         1 5WC       0.347900
     10 C22          4.4790    -3.1210    -1.8770 ca         1 5WC       0.284900
     11 C23          5.0150    -3.1620    -0.5680 ca         1 5WC      -0.072000
     12 C24          5.9180    -2.5790     2.5400 c          1 5WC       0.562800
     13 C27         -4.7970    -0.7640    -1.4780 ca         1 5WC       0.203000
     14 C28         -5.9410    -1.4110    -0.9680 ca         1 5WC       0.069000
     15 C29         -6.8420    -0.7080    -0.1530 ca         1 5WC      -0.070000
     16 C30         -6.6010     0.6410     0.1540 ca         1 5WC      -0.124000
     17 N4           0.9790     2.3280     0.7110 n          1 5WC      -0.385800
     18 C5          -0.5060     2.3470     0.6560 c5         1 5WC       0.031700
     19 C6          -1.0860     1.9590    -0.7410 c          1 5WC       0.593100
     20 N7          -2.4330     1.6880    -0.6160 ns         1 5WC      -0.493900
     21 O8          -0.4800     1.8700    -1.8020 o          1 5WC      -0.596100
     22 C9          -3.3090     1.3080    -1.7210 c3         1 5WC       0.166000
     23 C10         -3.6760     2.5330    -2.5840 c3         1 5WC      -0.103100
     24 N14          3.9080    -0.1080     0.8070 na         1 5WC       0.114600
     25 O15          1.0970     0.0400     0.6890 o          1 5WC      -0.574100
     26 N19          4.5820    -0.5010     1.9600 nd         1 5WC      -0.492100
     27 N21          3.7310    -2.0830    -2.3540 nb         1 5WC      -0.642000
     28 N25          6.1440    -2.0850     3.7850 nt         1 5WC      -0.594000
     29 O26          6.3870    -3.6720     2.2480 o          1 5WC      -0.606100
     30 C31         -5.4620     1.2900    -0.3530 ca         1 5WC      -0.076000
     31 Cl          -6.2580    -3.1060    -1.3410 cl         1 5WC      -0.158000
     32 C34          1.4930     4.6180     1.8050 cx         1 5WC      -0.141400
     33 H1           0.5180     5.4660    -0.0480 hc         1 5WC       0.104700
     34 H2          -1.1590     4.0010     1.9890 hc         1 5WC       0.065700
     35 H3          -1.6600     4.2460     0.3330 hc         1 5WC       0.065700
     36 H4           2.3400     3.7130    -0.0960 h1         1 5WC       0.108700
     37 H5           3.5460     1.6820    -0.2350 h1         1 5WC       0.087200
     38 H6           3.5330     1.8280     1.5340 h1         1 5WC       0.087200
     39 H7           2.8910    -0.2100    -1.9130 h4         1 5WC       0.025100
     40 H8           4.6520    -3.9460    -2.5670 h4         1 5WC       0.023100
     41 H9           5.6030    -4.0130    -0.2350 ha         1 5WC       0.150000
     42 H10         -7.7240    -1.2080     0.2410 ha         1 5WC       0.133000
     43 H11         -7.2980     1.1860     0.7870 ha         1 5WC       0.122000
     44 H12         -0.9460     1.6870     1.4160 h1         1 5WC       0.079700
     45 H13         -2.8380     1.7680     0.3090 hn         1 5WC       0.323500
     46 H14         -2.7480     0.6170    -2.3650 h1         1 5WC       0.093700
     47 H15         -4.3510     2.2390    -3.3960 hc         1 5WC       0.044700
     48 H16         -4.1710     3.3070    -1.9870 hc         1 5WC       0.044700
     49 H17         -2.7780     2.9740    -3.0340 hc         1 5WC       0.044700
     50 H18          5.7620    -1.1850     4.0390 hn         1 5WC       0.323500
     51 H19          6.6890    -2.6210     4.4430 hn         1 5WC       0.323500
     52 H20         -5.2920     2.3350    -0.1020 ha         1 5WC       0.120000
     53 H21          2.2440     5.4040     1.8380 hc         1 5WC       0.081700
     54 H22          1.1810     4.2470     2.7780 hc         1 5WC       0.081700
     55 C12          1.6950     1.1100     0.6950 c          1 5WC       0.598100
     56 F           -3.9370    -1.4570    -2.2620 f          1 5WC      -0.156000
@<TRIPOS>BOND
     1     1     2 1   
     2     1     3 1   
     3     1    32 1   
     4     1    33 1   
     5     2    18 1   
     6     2    34 1   
     7     2    35 1   
     8     3    17 1   
     9     3    32 1   
    10     3    36 1   
    11     4    13 ar  
    12     4    22 1   
    13     4    30 ar  
    14     5    24 1   
    15     5    37 1   
    16     5    38 1   
    17     5    55 1   
    18     6     7 ar  
    19     6     9 ar  
    20     6    24 1   
    21     7     8 1   
    22     7    11 ar  
    23     8    12 1   
    24     8    26 2   
    25     9    27 ar  
    26     9    39 1   
    27    10    11 ar  
    28    10    27 ar  
    29    10    40 1   
    30    11    41 1   
    31    12    28 1   
    32    12    29 2   
    33    13    14 ar  
    34    13    56 1   
    35    14    15 ar  
    36    14    31 1   
    37    15    16 ar  
    38    15    42 1   
    39    16    30 ar  
    40    16    43 1   
    41    17    18 1   
    42    17    55 1   
    43    18    19 1   
    44    18    44 1   
    45    19    20 1   
    46    19    21 2   
    47    20    22 1   
    48    20    45 1   
    49    22    23 1   
    50    22    46 1   
    51    23    47 1   
    52    23    48 1   
    53    23    49 1   
    54    24    26 1   
    55    25    55 2   
    56    28    50 1   
    57    28    51 1   
    58    30    52 1   
    59    32    53 1   
    60    32    54 1   
@<TRIPOS>SUBSTRUCTURE
     1 5WC         1 TEMP              0 ****  ****    0 ROOT
