@<TRIPOS>MOLECULE
5WC
   56    60     1     0     0
SMALL
abcg2


@<TRIPOS>ATOM
      1 C1           1.2640     5.2600    -0.1150 cx         1 5WC      -0.107700
      2 C2          -0.0330     5.1000     0.6620 c5         1 5WC      -0.050400
      3 C3           1.8320     3.9050    -0.3370 cx         1 5WC       0.035700
      4 C11         -3.1860     0.2390    -0.8170 ca         1 5WC      -0.145300
      5 C13          2.6740     1.2980     0.3680 c3         1 5WC       0.011600
      6 C16          2.7730    -1.0730    -0.4330 ca         1 5WC      -0.109200
      7 C17          2.9020    -2.3060     0.2170 ca         1 5WC      -0.148900
      8 C18          3.0260    -1.9540     1.5890 cc         1 5WC       0.293900
      9 C20          2.6380    -1.0050    -1.8220 ca         1 5WC       0.347900
     10 C22          2.7600    -3.2980    -1.9210 ca         1 5WC       0.284900
     11 C23          2.8910    -3.4670    -0.5620 ca         1 5WC      -0.072000
     12 C24          3.1890    -2.8690     2.7390 c          1 5WC       0.562800
     13 C27         -2.0250    -0.4690    -1.1000 ca         1 5WC       0.203000
     14 C28         -1.9190    -1.8290    -0.8680 ca         1 5WC       0.069000
     15 C29         -3.0020    -2.5260    -0.3520 ca         1 5WC      -0.070000
     16 C30         -4.1730    -1.8430    -0.0720 ca         1 5WC      -0.124000
     17 N4           0.9380     2.9780     0.3000 n          1 5WC      -0.385800
     18 C5          -0.3450     3.5960     0.6270 c5         1 5WC       0.031700
     19 C6          -1.3320     3.2280    -0.4780 c          1 5WC       0.593100
     20 N7          -2.2760     2.3500    -0.1170 ns         1 5WC      -0.493900
     21 O8          -1.2200     3.6930    -1.6020 o          1 5WC      -0.596100
     22 C9          -3.2150     1.7380    -1.0420 c3         1 5WC       0.166000
     23 C10         -4.5960     2.3650    -0.9130 c3         1 5WC      -0.103100
     24 N14          2.8430    -0.1160     0.5310 na         1 5WC       0.114600
     25 O15          0.4370     0.9500     1.1590 o          1 5WC      -0.574100
     26 N19          2.9810    -0.6480     1.7300 nd         1 5WC      -0.492100
     27 N21          2.6380    -2.1050    -2.5360 nb         1 5WC      -0.642000
     28 N25          3.2710    -2.2850     3.9400 nt         1 5WC      -0.594000
     29 O26          3.2400    -4.0790     2.5570 o          1 5WC      -0.606100
     30 C31         -4.2600    -0.4750    -0.2990 ca         1 5WC      -0.076000
     31 CL          -0.4400    -2.6360    -1.2250 cl         1 5WC      -0.158000
     32 C34          2.5450     4.8700     0.5640 cx         1 5WC      -0.141400
     33 H1           1.3040     5.9910    -0.9110 hc         1 5WC       0.104700
     34 H2           0.0770     5.4310     1.6960 hc         1 5WC       0.065700
     35 H3          -0.8350     5.6880     0.2190 hc         1 5WC       0.065700
     36 H4           2.2530     3.6120    -1.2910 h1         1 5WC       0.108700
     37 H5           2.9940     1.5680    -0.6380 h1         1 5WC       0.087200
     38 H6           3.3420     1.8190     1.0560 h1         1 5WC       0.087200
     39 H7           2.5320    -0.0610    -2.3470 h4         1 5WC       0.025100
     40 H8           2.7500    -4.1630    -2.5740 h4         1 5WC       0.023100
     41 H9           2.9870    -4.4520    -0.1310 ha         1 5WC       0.150000
     42 H10         -2.9220    -3.5900    -0.1740 ha         1 5WC       0.133000
     43 H11         -5.0220    -2.3780     0.3280 ha         1 5WC       0.122000
     44 H12         -0.6890     3.2360     1.5970 h1         1 5WC       0.079700
     45 H13         -2.2740     2.0090     0.8320 hn         1 5WC       0.323500
     46 H14         -2.8460     1.9450    -2.0480 h1         1 5WC       0.093700
     47 H15         -5.3020     1.9100    -1.6070 hc         1 5WC       0.044700
     48 H16         -4.9920     2.2700     0.0990 hc         1 5WC       0.044700
     49 H17         -4.5310     3.4260    -1.1490 hc         1 5WC       0.044700
     50 H18          3.2240    -1.2850     4.0450 hn         1 5WC       0.323500
     51 H19          3.3870    -2.8430     4.7690 hn         1 5WC       0.323500
     52 H20         -5.1830     0.0370    -0.0650 ha         1 5WC       0.120000
     53 H21          3.4660     5.3060     0.1970 hc         1 5WC       0.081700
     54 H22          2.5270     4.6760     1.6310 hc         1 5WC       0.081700
     55 C12          1.2310     1.7130     0.6430 c          1 5WC       0.598100
     56 F           -0.9770     0.1720    -1.6210 f          1 5WC      -0.156000
@<TRIPOS>BOND
     1     1     2 1   
     2     1     3 1   
     3     1    32 1   
     4     1    33 1   
     5     2    18 1   
     6     2    34 1   
     7     2    35 1   
     8     3    17 1   
     9     3    32 1   
    10     3    36 1   
    11     4    13 ar  
    12     4    22 1   
    13     4    30 ar  
    14     5    24 1   
    15     5    37 1   
    16     5    38 1   
    17     5    55 1   
    18     6     7 ar  
    19     6     9 ar  
    20     6    24 1   
    21     7     8 1   
    22     7    11 ar  
    23     8    12 1   
    24     8    26 2   
    25     9    27 ar  
    26     9    39 1   
    27    10    11 ar  
    28    10    27 ar  
    29    10    40 1   
    30    11    41 1   
    31    12    28 1   
    32    12    29 2   
    33    13    14 ar  
    34    13    56 1   
    35    14    15 ar  
    36    14    31 1   
    37    15    16 ar  
    38    15    42 1   
    39    16    30 ar  
    40    16    43 1   
    41    17    18 1   
    42    17    55 1   
    43    18    19 1   
    44    18    44 1   
    45    19    20 1   
    46    19    21 2   
    47    20    22 1   
    48    20    45 1   
    49    22    23 1   
    50    22    46 1   
    51    23    47 1   
    52    23    48 1   
    53    23    49 1   
    54    24    26 1   
    55    25    55 2   
    56    28    50 1   
    57    28    51 1   
    58    30    52 1   
    59    32    53 1   
    60    32    54 1   
@<TRIPOS>SUBSTRUCTURE
     1 5WC         1 TEMP              0 ****  ****    0 ROOT
