@<TRIPOS>MOLECULE
5WD
   36    38     1     0     0
SMALL
bcc


@<TRIPOS>ATOM
      1 C1           0.6190     0.5400     0.1900 ca         1 5WD       0.127100
      2 C2           1.1110     1.2460     1.3090 ca         1 5WD      -0.169000
      3 C3           2.4610     1.2750     1.5990 ca         1 5WD      -0.129000
      4 C14         -1.6310     1.1940     0.6660 c3         1 5WD       0.196700
      5 C15         -2.9870     0.9810     0.0640 ca         1 5WD      -0.142300
      6 C16         -3.4650     1.8470    -0.9140 ca         1 5WD      -0.130000
      7 C17         -4.7080     1.6270    -1.4900 ca         1 5WD      -0.171000
      8 C18         -5.4740     0.5380    -1.0970 ca         1 5WD      -0.090000
      9 C19         -5.0130    -0.3420    -0.1200 ca         1 5WD      -0.140600
     10 C20         -3.7650    -0.1050     0.4500 ca         1 5WD      -0.074000
     11 C21         -5.8550    -1.5370     0.3140 c          1 5WD       0.925200
     12 C4           1.4840    -0.1390    -0.6500 ca         1 5WD      -0.120000
     13 C5           2.8550    -0.1150    -0.3720 ca         1 5WD      -0.081800
     14 C6           3.3280     0.5870     0.7570 ca         1 5WD      -0.070200
     15 N7           4.6840     0.4400     0.8040 na         1 5WD      -0.174400
     16 C8           5.0890    -0.3080    -0.2710 cc         1 5WD      -0.162300
     17 C9           3.9980    -0.6710    -1.0140 cd         1 5WD      -0.106200
     18 C10          6.4950    -0.6680    -0.5470 c          1 5WD       0.702300
     19 N11          7.3540    -0.5400     0.4800 nt         1 5WD      -0.676000
     20 O12          6.8300    -1.0430    -1.6620 o          1 5WD      -0.593100
     21 O13         -0.6970     0.4820    -0.1320 os         1 5WD      -0.310900
     22 O22         -6.9430    -1.6930    -0.2710 o          1 5WD      -0.824800
     23 O23         -5.3820    -2.2540     1.2160 o          1 5WD      -0.824800
     24 H1           0.4370     1.7800     1.9640 ha         1 5WD       0.137000
     25 H2           2.8220     1.8180     2.4630 ha         1 5WD       0.124000
     26 H3          -1.3830     2.2610     0.6860 h1         1 5WD       0.026200
     27 H4          -1.6110     0.8290     1.6990 h1         1 5WD       0.026200
     28 H5          -2.8690     2.6970    -1.2220 ha         1 5WD       0.102000
     29 H6          -5.0820     2.3060    -2.2460 ha         1 5WD       0.105000
     30 H7          -6.4440     0.3700    -1.5450 ha         1 5WD       0.145000
     31 H8          -3.3970    -0.7790     1.2150 ha         1 5WD       0.147000
     32 H9           1.0990    -0.6730    -1.5100 ha         1 5WD       0.155000
     33 H10          5.2880     0.9450     1.4330 hn         1 5WD       0.289700
     34 H11          4.0140    -1.2850    -1.9010 ha         1 5WD       0.168000
     35 H12          7.0430    -0.4570     1.4330 hn         1 5WD       0.307000
     36 H13          8.3140    -0.8160     0.3510 hn         1 5WD       0.307000
@<TRIPOS>BOND
     1     1     2 ar  
     2     1    12 ar  
     3     1    21 1   
     4     2     3 ar  
     5     2    24 1   
     6     3    14 ar  
     7     3    25 1   
     8     4     5 1   
     9     4    21 1   
    10     4    26 1   
    11     4    27 1   
    12     5     6 ar  
    13     5    10 ar  
    14     6     7 ar  
    15     6    28 1   
    16     7     8 ar  
    17     7    29 1   
    18     8     9 ar  
    19     8    30 1   
    20     9    10 ar  
    21     9    11 1   
    22    10    31 1   
    23    11    22 1   
    24    11    23 1   
    25    12    13 ar  
    26    12    32 1   
    27    13    14 ar  
    28    13    17 1   
    29    14    15 1   
    30    15    16 1   
    31    15    33 1   
    32    16    17 2   
    33    16    18 1   
    34    17    34 1   
    35    18    19 1   
    36    18    20 2   
    37    19    35 1   
    38    19    36 1   
@<TRIPOS>SUBSTRUCTURE
     1 5WD         1 TEMP              0 ****  ****    0 ROOT
