@<TRIPOS>MOLECULE
5WD
   36    38     1     0     0
SMALL
No Charge or Current Charge


@<TRIPOS>ATOM
      1 C1           0.6310     0.5860     0.2370 ca         1 5WD       0.127100
      2 C2           1.1330     1.3280     1.3450 ca         1 5WD      -0.151000
      3 C3           2.5150     1.3280     1.6410 ca         1 5WD      -0.111000
      4 C14         -1.6970     1.2760     0.6680 c3         1 5WD       0.219900
      5 C15         -3.0630     1.0260     0.0420 ca         1 5WD      -0.142300
      6 C16         -3.6120     1.9550    -0.8600 ca         1 5WD      -0.112000
      7 C17         -4.8720     1.7200    -1.4310 ca         1 5WD      -0.153000
      8 C18         -5.5910     0.5580    -1.1070 ca         1 5WD      -0.072000
      9 C19         -5.0570    -0.3910    -0.2040 ca         1 5WD      -0.140600
     10 C20         -3.7860    -0.1410     0.3650 ca         1 5WD      -0.056000
     11 C21         -5.8310    -1.6500     0.1490 c          1 5WD       0.714600
     12 C4           1.5180    -0.1550    -0.5730 ca         1 5WD      -0.102000
     13 C5           2.8790    -0.1280    -0.2460 ca         1 5WD      -0.081800
     14 C6           3.3630     0.5810     0.8140 ca         1 5WD      -0.070200
     15 N7           4.7380     0.4190     0.8890 na         1 5WD      -0.224700
     16 C8           5.1870    -0.4280    -0.1570 cc         1 5WD      -0.162300
     17 C9           4.0240    -0.7570    -0.8490 cd         1 5WD      -0.156200
     18 C10          6.5430    -0.9140    -0.5230 c          1 5WD       0.635300
     19 N11          7.5510    -0.4880     0.2670 nt         1 5WD      -0.609000
     20 O12          6.7770    -1.6510    -1.4670 o          1 5WD      -0.593100
     21 O13         -0.7100     0.5570    -0.0890 os         1 5WD      -0.334100
     22 O22         -6.9200    -1.8360    -0.3780 o          1 5WD      -0.719500
     23 O23         -5.3410    -2.4350     0.9490 o          1 5WD      -0.719500
     24 H1           0.4690     1.9050     1.9810 ha         1 5WD       0.119000
     25 H2           2.9070     1.8920     2.4850 ha         1 5WD       0.106000
     26 H3          -1.4800     2.3520     0.6600 h1         1 5WD       0.026200
     27 H4          -1.7070     0.9350     1.7110 h1         1 5WD       0.026200
     28 H5          -3.0630     2.8580    -1.1180 ha         1 5WD       0.084000
     29 H6          -5.2930     2.4410    -2.1280 ha         1 5WD       0.087000
     30 H7          -6.5660     0.3970    -1.5630 ha         1 5WD       0.127000
     31 H8          -3.3510    -0.8550     1.0610 ha         1 5WD       0.129000
     32 H9           1.1540    -0.7270    -1.4220 ha         1 5WD       0.137000
     33 H10          5.3270     0.8490     1.5950 hn         1 5WD       0.340000
     34 H11          3.9930    -1.4020    -1.7250 ha         1 5WD       0.218000
     35 H12          7.3620     0.1200     1.0470 hn         1 5WD       0.307000
     36 H13          8.4930    -0.7870     0.0650 hn         1 5WD       0.307000
@<TRIPOS>BOND
     1     1     2 ar  
     2     1    12 ar  
     3     1    21 1   
     4     2     3 ar  
     5     2    24 1   
     6     3    14 ar  
     7     3    25 1   
     8     4     5 1   
     9     4    21 1   
    10     4    26 1   
    11     4    27 1   
    12     5     6 ar  
    13     5    10 ar  
    14     6     7 ar  
    15     6    28 1   
    16     7     8 ar  
    17     7    29 1   
    18     8     9 ar  
    19     8    30 1   
    20     9    10 ar  
    21     9    11 1   
    22    10    31 1   
    23    11    22 1   
    24    11    23 1   
    25    12    13 ar  
    26    12    32 1   
    27    13    14 ar  
    28    13    17 1   
    29    14    15 1   
    30    15    16 1   
    31    15    33 1   
    32    16    17 2   
    33    16    18 1   
    34    17    34 1   
    35    18    19 1   
    36    18    20 2   
    37    19    35 1   
    38    19    36 1   
@<TRIPOS>SUBSTRUCTURE
     1 5WD         1 TEMP              0 ****  ****    0 ROOT
