@<TRIPOS>MOLECULE
5WE
   67    71     1     0     0
SMALL
bcc


@<TRIPOS>ATOM
      1 C2          -3.1300     3.7060    -2.3430 cc         1 5WE       0.420200
      2 C3          -3.4810     3.1040    -1.1900 cd         1 5WE      -0.237600
      3 C4          -0.9250     3.0820    -2.2150 cd         1 5WE       0.729200
      4 C5          -1.1710     2.4710    -0.9380 cd         1 5WE      -0.226600
      5 C12         -4.3800     0.9210     3.7340 c5         1 5WE      -0.094400
      6 C13         -4.1570    -0.3620     2.9460 c5         1 5WE       0.108000
      7 N14         -4.0730     0.1180     1.5730 n          1 5WE      -0.482800
      8 N15          0.3120     3.0440    -2.7530 nv         1 5WE      -0.949500
      9 C16          0.9630     1.4330     0.1090 ca         1 5WE       0.021200
     10 C17          1.9500     2.3840    -0.1600 ca         1 5WE      -0.128000
     11 C18          3.2900     2.0640    -0.0430 ca         1 5WE      -0.087500
     12 C19          3.6820     0.7850     0.3480 ca         1 5WE      -0.154600
     13 C20          2.6990    -0.1570     0.6510 ca         1 5WE      -0.087500
     14 C21          1.3590     0.1650     0.5380 ca         1 5WE      -0.128000
     15 C22          5.1360     0.5060     0.4440 c          1 5WE       0.687700
     16 O37         -4.2880    -0.0460    -0.6480 o          1 5WE      -0.609100
     17 C30         -4.3240    -0.5830     0.4530 c          1 5WE       0.676100
     18 C31         -4.6350    -2.0530     0.6320 c3         1 5WE      -0.151400
     19 C32         -4.8790    -2.7820    -0.6790 c3         1 5WE      -0.068400
     20 C11         -3.5360     1.9330     2.9700 c5         1 5WE      -0.088400
     21 C10         -3.7330     1.5380     1.4990 c5         1 5WE       0.120400
     22 C7          -2.5120     1.7710     0.6710 cd         1 5WE       0.340800
     23 N6          -2.4780     2.4760    -0.4810 na         1 5WE       0.016800
     24 N8          -1.3150     1.3270     0.9750 nc         1 5WE      -0.549300
     25 C9          -0.4630     1.7480     0.0150 cc         1 5WE       0.082400
     26 N1          -1.8750     3.6930    -2.8720 nc         1 5WE      -0.771000
     27 O24          5.9730     1.3910     0.4970 o          1 5WE      -0.577100
     28 N23          5.5070    -0.8030     0.4540 ns         1 5WE      -0.532400
     29 C25          6.8080    -1.2400     0.5370 cc         1 5WE       0.531300
     30 N29          7.0930    -2.5020     0.5320 nd         1 5WE      -0.710000
     31 S26          8.1640    -0.1720     0.6460 ss         1 5WE      -0.083300
     32 C28          8.4450    -2.6860     0.6190 cd         1 5WE       0.367200
     33 C27          9.1890    -1.5570     0.6920 cc         1 5WE      -0.254400
     34 H1          -3.8870     4.2210    -2.9200 h4         1 5WE       0.031100
     35 H2          -4.4820     3.0780    -0.7970 h4         1 5WE       0.176000
     36 H3          -5.4350     1.1970     3.7050 hc         1 5WE       0.056200
     37 H4          -4.0850     0.8230     4.7770 hc         1 5WE       0.056200
     38 H5          -3.2270    -0.8530     3.2480 h1         1 5WE       0.050200
     39 H6          -4.9710    -1.0740     3.0680 h1         1 5WE       0.050200
     40 H7           0.9690     2.3420    -2.4570 hn         1 5WE       0.434800
     41 H8           0.3900     3.3220    -3.7180 hn         1 5WE       0.434800
     42 H9           1.6700     3.3900    -0.4420 ha         1 5WE       0.151500
     43 H10          4.0370     2.8170    -0.2540 ha         1 5WE       0.145000
     44 H11          2.9550    -1.1490     1.0000 ha         1 5WE       0.145000
     45 H12          0.6100    -0.5780     0.7760 ha         1 5WE       0.151500
     46 H13         -3.8090    -2.5190     1.1810 hc         1 5WE       0.056700
     47 H14         -5.7450    -2.3560    -1.1910 hc         1 5WE       0.063700
     48 H15         -4.0210    -2.6420    -1.3390 hc         1 5WE       0.063700
     49 H16         -3.8260     2.9670     3.1450 hc         1 5WE       0.068200
     50 H17         -2.4850     1.8260     3.2450 hc         1 5WE       0.068200
     51 H18         -4.5770     2.0930     1.0790 h1         1 5WE       0.063700
     52 H19          4.8220    -1.5360     0.3450 hn         1 5WE       0.342500
     53 H20          8.8420    -3.6910     0.6260 h4         1 5WE       0.039100
     54 H21         10.2600    -1.4620     0.7640 h4         1 5WE       0.177000
     55 C1          -5.1270    -4.2640    -0.4320 c3         1 5WE       0.163800
     56 N2          -5.5340    -4.9940    -1.6200 n3         1 5WE      -0.710600
     57 C8          -4.5060    -5.0190    -2.6390 c3         1 5WE       0.148600
     58 C14         -5.9420    -6.3390    -1.2770 c3         1 5WE       0.148600
     59 H22         -5.5080    -2.1550     1.2840 hc         1 5WE       0.056700
     60 H23         -4.2260    -4.7110     0.0280 h1         1 5WE       0.024700
     61 H24         -5.9280    -4.3660     0.3060 h1         1 5WE       0.024700
     62 H25         -3.5660    -5.4790    -2.2950 h1         1 5WE       0.030533
     63 H26         -4.8570    -5.5880    -3.5010 h1         1 5WE       0.030533
     64 H27         -4.2760    -4.0130    -2.9910 h1         1 5WE       0.030533
     65 H28         -6.7590    -6.3130    -0.5540 h1         1 5WE       0.030533
     66 H29         -6.3020    -6.8590    -2.1660 h1         1 5WE       0.030533
     67 H30         -5.1290    -6.9440    -0.8440 h1         1 5WE       0.030533
@<TRIPOS>BOND
     1     1     2 2   
     2     1    26 1   
     3     1    34 1   
     4     2    23 1   
     5     2    35 1   
     6     3     4 1   
     7     3     8 1   
     8     3    26 2   
     9     4    23 1   
    10     4    25 2   
    11     5     6 1   
    12     5    20 1   
    13     5    36 1   
    14     5    37 1   
    15     6     7 1   
    16     6    38 1   
    17     6    39 1   
    18     7    17 1   
    19     7    21 1   
    20     8    40 1   
    21     8    41 1   
    22     9    10 ar  
    23     9    14 ar  
    24     9    25 1   
    25    10    11 ar  
    26    10    42 1   
    27    11    12 ar  
    28    11    43 1   
    29    12    13 ar  
    30    12    15 1   
    31    13    14 ar  
    32    13    44 1   
    33    14    45 1   
    34    15    27 2   
    35    15    28 1   
    36    16    17 2   
    37    17    18 1   
    38    18    19 1   
    39    18    46 1   
    40    18    59 1   
    41    19    47 1   
    42    19    48 1   
    43    19    55 1   
    44    20    21 1   
    45    20    49 1   
    46    20    50 1   
    47    21    22 1   
    48    21    51 1   
    49    22    23 1   
    50    22    24 2   
    51    24    25 1   
    52    28    29 1   
    53    28    52 1   
    54    29    30 2   
    55    29    31 1   
    56    30    32 1   
    57    31    33 1   
    58    32    33 2   
    59    32    53 1   
    60    33    54 1   
    61    55    56 1   
    62    55    60 1   
    63    55    61 1   
    64    56    57 1   
    65    56    58 1   
    66    57    62 1   
    67    57    63 1   
    68    57    64 1   
    69    58    65 1   
    70    58    66 1   
    71    58    67 1   
@<TRIPOS>SUBSTRUCTURE
     1 5WE         1 TEMP              0 ****  ****    0 ROOT
