@<TRIPOS>MOLECULE
5WE
   67    71     1     0     0
SMALL
No Charge or Current Charge


@<TRIPOS>ATOM
      1 C2          -2.9230     4.1060    -2.2220 cc         1 5WE       0.354900
      2 C3          -3.4000     3.4610    -1.0770 cd         1 5WE      -0.205000
      3 C4          -0.7510     3.4360    -1.9080 cd         1 5WE       0.663900
      4 C5          -1.1520     2.7820    -0.7230 cd         1 5WE      -0.212000
      5 C12         -4.9520     1.1990     3.6380 c5         1 5WE      -0.094400
      6 C13         -4.7580    -0.1650     2.9260 c5         1 5WE       0.108000
      7 N14         -4.3400     0.2620     1.5720 n          1 5WE      -0.415800
      8 N15          0.4740     3.3880    -2.4190 nv         1 5WE      -1.059900
      9 C16          0.8810     1.5920     0.1450 ca         1 5WE       0.021200
     10 C17          1.8890     2.5710     0.1700 ca         1 5WE      -0.110000
     11 C18          3.2450     2.2030     0.1740 ca         1 5WE      -0.069500
     12 C19          3.6280     0.8410     0.1740 ca         1 5WE      -0.154600
     13 C20          2.6060    -0.1410     0.1840 ca         1 5WE      -0.069500
     14 C21          1.2510     0.2360     0.1800 ca         1 5WE      -0.110000
     15 C22          5.1030     0.4850     0.1780 c          1 5WE       0.620700
     16 O37         -4.1930    -0.0970    -0.6830 o          1 5WE      -0.609100
     17 C30         -4.3980    -0.5630     0.4310 c          1 5WE       0.609100
     18 C31         -4.7180    -2.0580     0.6300 c3         1 5WE      -0.151400
     19 C32         -4.5650    -2.9500    -0.6270 c3         1 5WE      -0.068400
     20 C11         -3.8100     2.0420     3.0220 c5         1 5WE      -0.088400
     21 C10         -3.9420     1.6930     1.5090 c5         1 5WE       0.120400
     22 C7          -2.6280     2.0000     0.7840 cd         1 5WE       0.340800
     23 N6          -2.4240     2.8360    -0.3050 na         1 5WE       0.118200
     24 N8          -1.4400     1.4600     1.1000 nc         1 5WE      -0.549300
     25 C9          -0.5340     1.9660     0.1920 cc         1 5WE       0.082400
     26 N1          -1.5920     4.1040    -2.6530 nc         1 5WE      -0.771000
     27 O24          5.9680     1.3480     0.1840 o          1 5WE      -0.577100
     28 N23          5.4070    -0.8530     0.1740 ns         1 5WE      -0.465400
     29 C25          6.6350    -1.4580     0.1800 cc         1 5WE       0.531300
     30 N29          6.6500    -2.7790     0.1730 nd         1 5WE      -0.710000
     31 S26          8.2030    -0.6730     0.1940 ss         1 5WE       0.061600
     32 C28          7.9590    -3.2400     0.1800 cd         1 5WE       0.301900
     33 C27          8.9190    -2.2580     0.1910 cc         1 5WE      -0.316000
     34 H1          -3.5930     4.6490    -2.8760 h4         1 5WE       0.031100
     35 H2          -4.4340     3.4390    -0.7630 h4         1 5WE       0.158000
     36 H3          -5.9330     1.6300     3.4060 hc         1 5WE       0.056200
     37 H4          -4.8800     1.1150     4.7290 hc         1 5WE       0.056200
     38 H5          -3.9690    -0.7610     3.4030 h1         1 5WE       0.050200
     39 H6          -5.6870    -0.7500     2.9200 h1         1 5WE       0.050200
     40 H7           1.0610     2.6210    -2.1190 hn         1 5WE       0.490000
     41 H8           0.5390     3.6580    -3.3920 hn         1 5WE       0.490000
     42 H9           1.6200     3.6250     0.1930 ha         1 5WE       0.133500
     43 H10          4.0010     2.9860     0.1840 ha         1 5WE       0.127000
     44 H11          2.8370    -1.2030     0.1990 ha         1 5WE       0.127000
     45 H12          0.4800    -0.5310     0.1980 ha         1 5WE       0.133500
     46 H13         -4.1140    -2.4300     1.4660 hc         1 5WE       0.056700
     47 H14         -5.2330    -2.5830    -1.4160 hc         1 5WE       0.063700
     48 H15         -3.5390    -2.8570    -1.0000 hc         1 5WE       0.063700
     49 H16         -3.9210     3.1150     3.2150 hc         1 5WE       0.068200
     50 H17         -2.8400     1.7350     3.4340 hc         1 5WE       0.068200
     51 H18         -4.7540     2.2760     1.0570 h1         1 5WE       0.063700
     52 H19          4.6180    -1.4770     0.1670 hn         1 5WE       0.342500
     53 H20          8.1500    -4.3070     0.1760 h4         1 5WE       0.039100
     54 H21          9.9950    -2.3660     0.1980 h4         1 5WE       0.159000
     55 C1          -4.8860    -4.4370    -0.3490 c3         1 5WE       0.163800
     56 N2          -4.9010    -5.3090    -1.5500 n3         1 5WE      -0.710600
     57 C8          -3.5970    -5.3890    -2.2520 c3         1 5WE       0.148600
     58 C14         -5.4470    -6.6530    -1.2520 c3         1 5WE       0.148600
     59 H22         -5.7300    -2.1270     1.0450 hc         1 5WE       0.056700
     60 H23         -4.1630    -4.8220     0.3830 h1         1 5WE       0.024700
     61 H24         -5.8750    -4.4750     0.1300 h1         1 5WE       0.024700
     62 H25         -2.8170    -5.7820    -1.5860 h1         1 5WE       0.030533
     63 H26         -3.6680    -6.0530    -3.1240 h1         1 5WE       0.030533
     64 H27         -3.2790    -4.4040    -2.6160 h1         1 5WE       0.030533
     65 H28         -6.4510    -6.5760    -0.8120 h1         1 5WE       0.030533
     66 H29         -5.5270    -7.2520    -2.1690 h1         1 5WE       0.030533
     67 H30         -4.8010    -7.1900    -0.5450 h1         1 5WE       0.030533
@<TRIPOS>BOND
     1     1     2 2   
     2     1    26 1   
     3     1    34 1   
     4     2    23 1   
     5     2    35 1   
     6     3     4 1   
     7     3     8 1   
     8     3    26 2   
     9     4    23 1   
    10     4    25 2   
    11     5     6 1   
    12     5    20 1   
    13     5    36 1   
    14     5    37 1   
    15     6     7 1   
    16     6    38 1   
    17     6    39 1   
    18     7    17 1   
    19     7    21 1   
    20     8    40 1   
    21     8    41 1   
    22     9    10 ar  
    23     9    14 ar  
    24     9    25 1   
    25    10    11 ar  
    26    10    42 1   
    27    11    12 ar  
    28    11    43 1   
    29    12    13 ar  
    30    12    15 1   
    31    13    14 ar  
    32    13    44 1   
    33    14    45 1   
    34    15    27 2   
    35    15    28 1   
    36    16    17 2   
    37    17    18 1   
    38    18    19 1   
    39    18    46 1   
    40    18    59 1   
    41    19    47 1   
    42    19    48 1   
    43    19    55 1   
    44    20    21 1   
    45    20    49 1   
    46    20    50 1   
    47    21    22 1   
    48    21    51 1   
    49    22    23 1   
    50    22    24 2   
    51    24    25 1   
    52    28    29 1   
    53    28    52 1   
    54    29    30 2   
    55    29    31 1   
    56    30    32 1   
    57    31    33 1   
    58    32    33 2   
    59    32    53 1   
    60    33    54 1   
    61    55    56 1   
    62    55    60 1   
    63    55    61 1   
    64    56    57 1   
    65    56    58 1   
    66    57    62 1   
    67    57    63 1   
    68    57    64 1   
    69    58    65 1   
    70    58    66 1   
    71    58    67 1   
@<TRIPOS>SUBSTRUCTURE
     1 5WE         1 TEMP              0 ****  ****    0 ROOT
