@<TRIPOS>MOLECULE
5WF
   70    75     1     0     0
SMALL
No Charge or Current Charge


@<TRIPOS>ATOM
      1 O38          9.0950    -1.1800    -1.1630 o          1 5WF      -0.598100
      2 C36          8.1420    -0.9060    -0.4420 c          1 5WF       0.623100
      3 C37          8.1330    -0.3130     1.0370 cy         1 5WF      -0.204000
      4 C42          7.8010     1.1520     1.3940 c3         1 5WF      -0.076100
      5 C41          9.4810    -0.9820     1.5160 cy         1 5WF       0.155100
      6 O40          8.6890    -1.5490     2.6200 oq         1 5WF      -0.448000
      7 C39          7.5160    -1.5850     1.7310 cy         1 5WF       0.155100
      8 N34          6.8200    -1.0630    -1.0710 n          1 5WF      -0.404800
      9 C33          6.6250    -1.6430    -2.4650 c6         1 5WF       0.089000
     10 C32          5.8390    -0.6810    -3.3900 c6         1 5WF      -0.099400
     11 C31          4.4790    -0.2980    -2.7640 c6         1 5WF      -0.068400
     12 C35          5.4760    -0.7020    -0.4560 c6         1 5WF       0.103000
     13 C29          4.6810     0.2920    -1.3410 c6         1 5WF      -0.082000
     14 C27          3.3570     0.6150    -0.6740 cc         1 5WF       0.346800
     15 N26          3.0770     1.7060     0.1200 na         1 5WF       0.096200
     16 C22          3.9780     2.6970     0.5070 cc         1 5WF      -0.234000
     17 C21          3.4900     3.6440     1.4200 cd         1 5WF       0.366900
     18 C25          1.8450     1.6540     0.6220 cc         1 5WF      -0.222000
     19 C23          1.4640     2.6110     1.5830 cc         1 5WF       0.668900
     20 N30          0.3360     2.5240     2.2690 nv         1 5WF      -1.053900
     21 N20          2.2050     3.5960     1.9990 nd         1 5WF      -0.774000
     22 N28          2.2430    -0.1190    -0.7190 nd         1 5WF      -0.551300
     23 C24          1.2820     0.5190     0.0700 cd         1 5WF       0.096400
     24 C3          -0.1180     0.0280     0.0820 ca         1 5WF       0.007200
     25 C2          -1.2190     0.9030     0.1890 ca         1 5WF      -0.104000
     26 C4          -0.3810    -1.3350    -0.1620 ca         1 5WF      -0.104000
     27 C5          -1.6970    -1.8260    -0.2060 ca         1 5WF      -0.075000
     28 C6          -2.7990    -0.9580    -0.0440 ca         1 5WF      -0.156600
     29 C1          -2.5390     0.4210     0.1420 ca         1 5WF      -0.075000
     30 C7          -4.2100    -1.5190    -0.0970 c          1 5WF       0.624700
     31 O8          -4.4150    -2.7120    -0.2850 o          1 5WF      -0.522100
     32 N9          -5.2280    -0.6020     0.0530 ns         1 5WF      -0.327900
     33 C15         -6.6150    -0.7920     0.1030 ca         1 5WF       0.491900
     34 N10         -7.0320    -1.8730     0.7910 nb         1 5WF      -0.661000
     35 C14         -7.4900     0.1670    -0.4360 ca         1 5WF      -0.175000
     36 C13         -8.8840    -0.0120    -0.3080 ca         1 5WF      -0.126300
     37 C16         -9.8800     0.9910    -0.9020 c3         1 5WF       0.357300
     38 F19        -11.0440     1.0280    -0.2140 f          1 5WF      -0.109000
     39 F18         -9.3930     2.2540    -0.9060 f          1 5WF      -0.109000
     40 F17        -10.1860     0.6810    -2.1810 f          1 5WF      -0.109000
     41 C12         -9.3150    -1.1670     0.3790 ca         1 5WF      -0.158000
     42 C11         -8.3660    -2.0570     0.9120 ca         1 5WF       0.375900
     43 H1           6.7960     1.4400     1.0740 hc         1 5WF       0.045033
     44 H2           7.8670     1.3150     2.4770 hc         1 5WF       0.045033
     45 H3           8.5090     1.8360     0.9110 hc         1 5WF       0.045033
     46 H4           9.9320    -1.7940     0.9310 h1         1 5WF       0.061200
     47 H5          10.2490    -0.2870     1.8760 h1         1 5WF       0.061200
     48 H6           6.5810    -1.4240     2.2800 h1         1 5WF       0.061200
     49 H7           7.4850    -2.5210     1.1570 h1         1 5WF       0.061200
     50 H8           7.5910    -1.8760    -2.9320 h1         1 5WF       0.065200
     51 H9           6.0770    -2.5930    -2.3790 h1         1 5WF       0.065200
     52 H10          6.4360     0.2240    -3.5670 hc         1 5WF       0.053200
     53 H11          5.6830    -1.1510    -4.3700 hc         1 5WF       0.053200
     54 H12          3.9630     0.4300    -3.4060 hc         1 5WF       0.059200
     55 H13          3.8370    -1.1890    -2.7210 hc         1 5WF       0.059200
     56 H14          4.8900    -1.6250    -0.3320 h1         1 5WF       0.060700
     57 H15          5.5860    -0.2690     0.5430 h1         1 5WF       0.060700
     58 H16          5.2810     1.2040    -1.4520 hc         1 5WF       0.057700
     59 H17          4.9720     2.7100     0.0870 h4         1 5WF       0.155000
     60 H18          4.1170     4.4610     1.7540 h4         1 5WF       0.033100
     61 H19         -0.0540     1.5950     2.3600 hn         1 5WF       0.491500
     62 H20          0.3270     3.0930     3.1060 hn         1 5WF       0.491500
     63 H21         -1.0650     1.9750     0.2550 ha         1 5WF       0.132000
     64 H22          0.4440    -2.0310    -0.2960 ha         1 5WF       0.132000
     65 H23         -1.8540    -2.8900    -0.3720 ha         1 5WF       0.126500
     66 H24         -3.3480     1.1410     0.2360 ha         1 5WF       0.126500
     67 H25         -4.9400     0.3620     0.1310 hn         1 5WF       0.159000
     68 H26         -7.0820     1.0310    -0.9520 ha         1 5WF       0.136000
     69 H27        -10.3720    -1.3810     0.5110 ha         1 5WF       0.144000
     70 H28         -8.6850    -2.9460     1.4560 h4         1 5WF       0.032100
@<TRIPOS>BOND
     1     1     2 2   
     2     2     3 1   
     3     2     8 1   
     4     3     4 1   
     5     3     5 1   
     6     3     7 1   
     7     4    43 1   
     8     4    44 1   
     9     4    45 1   
    10     5     6 1   
    11     5    46 1   
    12     5    47 1   
    13     6     7 1   
    14     7    48 1   
    15     7    49 1   
    16     8     9 1   
    17     8    12 1   
    18     9    10 1   
    19     9    50 1   
    20     9    51 1   
    21    10    11 1   
    22    10    52 1   
    23    10    53 1   
    24    11    13 1   
    25    11    54 1   
    26    11    55 1   
    27    12    13 1   
    28    12    56 1   
    29    12    57 1   
    30    13    14 1   
    31    13    58 1   
    32    14    15 1   
    33    14    22 2   
    34    15    16 1   
    35    15    18 1   
    36    16    17 2   
    37    16    59 1   
    38    17    21 1   
    39    17    60 1   
    40    18    19 1   
    41    18    23 2   
    42    19    20 1   
    43    19    21 2   
    44    20    61 1   
    45    20    62 1   
    46    22    23 1   
    47    23    24 1   
    48    24    25 ar  
    49    24    26 ar  
    50    25    29 ar  
    51    25    63 1   
    52    26    27 ar  
    53    26    64 1   
    54    27    28 ar  
    55    27    65 1   
    56    28    29 ar  
    57    28    30 1   
    58    29    66 1   
    59    30    31 2   
    60    30    32 1   
    61    32    33 1   
    62    32    67 1   
    63    33    34 ar  
    64    33    35 ar  
    65    34    42 ar  
    66    35    36 ar  
    67    35    68 1   
    68    36    37 1   
    69    36    41 ar  
    70    37    38 1   
    71    37    39 1   
    72    37    40 1   
    73    41    42 ar  
    74    41    69 1   
    75    42    70 1   
@<TRIPOS>SUBSTRUCTURE
     1 5WF         1 TEMP              0 ****  ****    0 ROOT
