@<TRIPOS>MOLECULE
5WF
   70    75     1     0     0
SMALL
bcc


@<TRIPOS>ATOM
      1 O38          8.6570    -1.4210    -1.4320 o          1 5WF      -0.598100
      2 C36          7.6730    -1.1640    -0.7500 c          1 5WF       0.690100
      3 C37          7.8730    -0.7600     0.6990 cy         1 5WF      -0.204000
      4 C42          7.8900     0.7600     0.8220 c3         1 5WF      -0.076100
      5 C41          9.0910    -1.4190     1.3660 cy         1 5WF       0.131900
      6 O40          8.3040    -1.8180     2.4950 oq         1 5WF      -0.401600
      7 C39          7.0940    -1.4770     1.8210 cy         1 5WF       0.131900
      8 N34          6.4180    -1.2050    -1.2480 n          1 5WF      -0.471800
      9 C33          6.1820    -1.5510    -2.6420 c6         1 5WF       0.089000
     10 C32          5.5950    -0.3670    -3.3960 c6         1 5WF      -0.099400
     11 C31          4.3240     0.1350    -2.7220 c6         1 5WF      -0.068400
     12 C35          5.2200    -0.7820    -0.5550 c6         1 5WF       0.103000
     13 C29          4.5850     0.4380    -1.2460 c6         1 5WF      -0.082000
     14 C27          3.3350     0.8080    -0.5230 cc         1 5WF       0.346800
     15 N26          3.2180     1.8500     0.3330 na         1 5WF      -0.005200
     16 C22          4.1130     2.8420     0.6890 cc         1 5WF      -0.266600
     17 C21          3.7000     3.7430     1.6010 cd         1 5WF       0.432200
     18 C25          1.9370     1.8230     0.8570 cc         1 5WF      -0.236600
     19 C23          1.6350     2.7830     1.8840 cc         1 5WF       0.734200
     20 N30          0.4400     2.7410     2.5110 nv         1 5WF      -0.943500
     21 N20          2.4890     3.7130     2.2220 nd         1 5WF      -0.774000
     22 N28          2.2090     0.1320    -0.5760 nd         1 5WF      -0.551300
     23 C24          1.3220     0.7390     0.2460 cd         1 5WF       0.096400
     24 C3          -0.0440     0.2250     0.3580 ca         1 5WF       0.007200
     25 C2          -1.1520     1.0720     0.3730 ca         1 5WF      -0.122000
     26 C4          -0.2600    -1.1550     0.3950 ca         1 5WF      -0.122000
     27 C5          -1.5400    -1.6680     0.4730 ca         1 5WF      -0.093000
     28 C6          -2.6470    -0.8190     0.4910 ca         1 5WF      -0.156600
     29 C1          -2.4360     0.5570     0.4440 ca         1 5WF      -0.093000
     30 C7          -4.0010    -1.4410     0.5940 c          1 5WF       0.691700
     31 O8          -4.1510    -2.5470     1.0670 o          1 5WF      -0.522100
     32 N9          -5.0180    -0.6710     0.0970 ns         1 5WF      -0.561400
     33 C15         -6.3810    -0.9300     0.0880 ca         1 5WF       0.557200
     34 N10         -6.8660    -1.9400     0.7850 nb         1 5WF      -0.661000
     35 C14         -7.1900    -0.0680    -0.6630 ca         1 5WF      -0.258300
     36 C13         -8.5500    -0.3010    -0.6750 ca         1 5WF      -0.126300
     37 C16         -9.4440     0.5710    -1.5080 c3         1 5WF       0.721200
     38 F19        -10.6980     0.5810    -1.0540 f          1 5WF      -0.230300
     39 F18         -9.0210     1.8370    -1.5390 f          1 5WF      -0.230300
     40 F17         -9.4840     0.1390    -2.7750 f          1 5WF      -0.230300
     41 C12         -9.0700    -1.3710     0.0430 ca         1 5WF      -0.241300
     42 C11         -8.1770    -2.1500     0.7540 ca         1 5WF       0.441200
     43 H1           6.9330     1.2070     0.5510 hc         1 5WF       0.045033
     44 H2           8.1120     1.0590     1.8470 hc         1 5WF       0.045033
     45 H3           8.6540     1.1900     0.1730 hc         1 5WF       0.045033
     46 H4           9.4970    -2.2750     0.8220 h1         1 5WF       0.061200
     47 H5           9.9110    -0.7480     1.6390 h1         1 5WF       0.061200
     48 H6           6.4340    -0.8490     2.4260 h1         1 5WF       0.061200
     49 H7           6.5380    -2.3640     1.4950 h1         1 5WF       0.061200
     50 H8           7.1140    -1.8800    -3.0930 h1         1 5WF       0.065200
     51 H9           5.4830    -2.3940    -2.6710 h1         1 5WF       0.065200
     52 H10          6.3380     0.4340    -3.4450 hc         1 5WF       0.053200
     53 H11          5.3800    -0.6680    -4.4230 hc         1 5WF       0.053200
     54 H12          3.9510     1.0300    -3.2230 hc         1 5WF       0.059200
     55 H13          3.5420    -0.6260    -2.8000 hc         1 5WF       0.059200
     56 H14          4.4980    -1.6050    -0.5520 h1         1 5WF       0.060700
     57 H15          5.4260    -0.5430     0.4840 h1         1 5WF       0.060700
     58 H16          5.2990     1.2650    -1.1890 hc         1 5WF       0.057700
     59 H17          5.0800     2.8580     0.2140 h4         1 5WF       0.173000
     60 H18          4.3700     4.5400     1.8940 h4         1 5WF       0.033100
     61 H19         -0.0800     1.8810     2.5390 hn         1 5WF       0.436300
     62 H20          0.3490     3.3200     3.3310 hn         1 5WF       0.436300
     63 H21         -1.0200     2.1440     0.3100 ha         1 5WF       0.150000
     64 H22          0.5850    -1.8300     0.3740 ha         1 5WF       0.150000
     65 H23         -1.6810    -2.7390     0.5160 ha         1 5WF       0.144500
     66 H24         -3.2620     1.2570     0.4740 ha         1 5WF       0.144500
     67 H25         -4.7490     0.1580    -0.4100 hn         1 5WF       0.325500
     68 H26         -6.7470     0.7530    -1.2100 ha         1 5WF       0.154000
     69 H27        -10.1250    -1.6010     0.0650 ha         1 5WF       0.162000
     70 H28         -8.5390    -2.9900     1.3350 h4         1 5WF       0.032100
@<TRIPOS>BOND
     1     1     2 2   
     2     2     3 1   
     3     2     8 1   
     4     3     4 1   
     5     3     5 1   
     6     3     7 1   
     7     4    43 1   
     8     4    44 1   
     9     4    45 1   
    10     5     6 1   
    11     5    46 1   
    12     5    47 1   
    13     6     7 1   
    14     7    48 1   
    15     7    49 1   
    16     8     9 1   
    17     8    12 1   
    18     9    10 1   
    19     9    50 1   
    20     9    51 1   
    21    10    11 1   
    22    10    52 1   
    23    10    53 1   
    24    11    13 1   
    25    11    54 1   
    26    11    55 1   
    27    12    13 1   
    28    12    56 1   
    29    12    57 1   
    30    13    14 1   
    31    13    58 1   
    32    14    15 1   
    33    14    22 2   
    34    15    16 1   
    35    15    18 1   
    36    16    17 2   
    37    16    59 1   
    38    17    21 1   
    39    17    60 1   
    40    18    19 1   
    41    18    23 2   
    42    19    20 1   
    43    19    21 2   
    44    20    61 1   
    45    20    62 1   
    46    22    23 1   
    47    23    24 1   
    48    24    25 ar  
    49    24    26 ar  
    50    25    29 ar  
    51    25    63 1   
    52    26    27 ar  
    53    26    64 1   
    54    27    28 ar  
    55    27    65 1   
    56    28    29 ar  
    57    28    30 1   
    58    29    66 1   
    59    30    31 2   
    60    30    32 1   
    61    32    33 1   
    62    32    67 1   
    63    33    34 ar  
    64    33    35 ar  
    65    34    42 ar  
    66    35    36 ar  
    67    35    68 1   
    68    36    37 1   
    69    36    41 ar  
    70    37    38 1   
    71    37    39 1   
    72    37    40 1   
    73    41    42 ar  
    74    41    69 1   
    75    42    70 1   
@<TRIPOS>SUBSTRUCTURE
     1 5WF         1 TEMP              0 ****  ****    0 ROOT
