@<TRIPOS>MOLECULE
5WH
   69    74     1     0     0
SMALL
No Charge or Current Charge


@<TRIPOS>ATOM
      1 N01          2.1970    -4.8430    -0.6830 nc         1 5WH      -0.774000
      2 C02          3.5840    -4.7050    -0.7990 cc         1 5WH       0.362900
      3 C03          4.2930    -3.5130    -0.6180 cd         1 5WH      -0.229000
      4 C04          1.5390    -3.7560    -0.3740 cd         1 5WH       0.668900
      5 C05          2.1830    -2.5140    -0.1930 cd         1 5WH      -0.221000
      6 N06          3.5050    -2.3940    -0.3620 na         1 5WH       0.098200
      7 C07          3.9430    -1.1240    -0.0150 cd         1 5WH       0.351800
      8 N08          2.8610    -0.4100     0.3220 nc         1 5WH      -0.540300
      9 C09          1.7830    -1.2610     0.1920 cc         1 5WH       0.093400
     10 C10          5.3700    -0.6070     0.0210 c6         1 5WH      -0.080000
     11 N11          0.2390    -3.9620    -0.1960 nv         1 5WH      -1.055900
     12 C12          5.4400     0.9100    -0.3020 c6         1 5WH       0.114000
     13 C13          7.4830    -0.3910     1.3810 c6         1 5WH      -0.084400
     14 C14          7.5580     1.1280     1.0710 c6         1 5WH       0.105700
     15 N15          6.8160     1.4950    -0.1730 n          1 5WH      -0.410800
     16 C16          6.0340    -0.9200     1.3810 c6         1 5WH      -0.073400
     17 C17          0.3990    -0.8990     0.4970 ca         1 5WH      -0.036800
     18 C18          0.0380    -0.4040     1.7660 ca         1 5WH       0.194000
     19 C19         -1.2870    -0.0270     2.0360 ca         1 5WH      -0.109000
     20 C20         -2.2880    -0.1200     1.0400 ca         1 5WH      -0.130600
     21 C21         -1.9140    -0.6000    -0.2400 ca         1 5WH      -0.110000
     22 C22         -0.5860    -0.9780    -0.5050 ca         1 5WH      -0.089000
     23 F23          0.9580    -0.3090     2.7530 f          1 5WH      -0.157000
     24 C24         -3.7120     0.2990     1.3680 c          1 5WH       0.623700
     25 O25         -4.0130     0.7190     2.4780 o          1 5WH      -0.522100
     26 N26         -4.6220     0.1970     0.3350 ns         1 5WH      -0.330900
     27 C27         -6.0000     0.4480     0.3160 ca         1 5WH       0.484900
     28 N28         -6.6810     0.0500     1.4100 nb         1 5WH      -0.658000
     29 C29         -8.0220     0.2210     1.4040 ca         1 5WH       0.373900
     30 C30         -8.7220     0.7640     0.3120 ca         1 5WH      -0.152000
     31 C31         -8.0180     1.1460    -0.8510 ca         1 5WH      -0.130300
     32 C32         -6.6180     0.9710    -0.8320 ca         1 5WH      -0.165000
     33 C33         -8.7360     1.7380    -2.0690 c3         1 5WH       0.357300
     34 F34        -10.0090     1.2920    -2.1820 f          1 5WH      -0.108333
     35 F35         -8.7950     3.0870    -1.9970 f          1 5WH      -0.108333
     36 F36         -8.1140     1.4300    -3.2300 f          1 5WH      -0.108333
     37 C37          7.0650     1.9740     2.2780 c3         1 5WH      -0.107100
     38 C38          7.2740     2.5640    -0.9820 c          1 5WH       0.639100
     39 O39          8.3670     3.0890    -0.8090 o          1 5WH      -0.613100
     40 C40          6.3470     3.0280    -2.0900 cx         1 5WH      -0.238700
     41 C41          6.2940     4.5040    -2.4410 cx         1 5WH      -0.100900
     42 C42          5.1320     3.8600    -1.7240 cx         1 5WH      -0.100900
     43 H1           4.0980    -5.6290    -1.0330 h4         1 5WH       0.032100
     44 H2           5.3670    -3.4090    -0.6820 h4         1 5WH       0.158000
     45 H3           5.9430    -1.1220    -0.7610 hc         1 5WH       0.062700
     46 H4          -0.0190    -4.9340    -0.0860 hn         1 5WH       0.491500
     47 H5          -0.2610    -3.2910     0.3720 hn         1 5WH       0.491500
     48 H6           5.0480     1.0440    -1.3190 h1         1 5WH       0.064700
     49 H7           4.7720     1.4620     0.3740 h1         1 5WH       0.064700
     50 H8           8.0670    -0.9380     0.6280 hc         1 5WH       0.049200
     51 H9           7.9600    -0.6050     2.3480 hc         1 5WH       0.049200
     52 H10          8.6240     1.3670     0.9350 h1         1 5WH       0.085700
     53 H11          5.4570    -0.4710     2.2010 hc         1 5WH       0.051200
     54 H12          6.0370    -2.0040     1.5590 hc         1 5WH       0.051200
     55 H13         -1.5310     0.3390     3.0310 ha         1 5WH       0.156000
     56 H14         -2.6400    -0.6860    -1.0460 ha         1 5WH       0.123000
     57 H15         -0.3170    -1.3310    -1.4990 ha         1 5WH       0.133000
     58 H16         -4.2420    -0.0940    -0.5530 hn         1 5WH       0.161000
     59 H17         -8.5540    -0.0900     2.3030 h4         1 5WH       0.033100
     60 H18         -9.8010     0.8770     0.3790 ha         1 5WH       0.143000
     61 H19         -6.0080     1.2430    -1.6890 ha         1 5WH       0.140000
     62 H20          7.6240     1.7290     3.1880 hc         1 5WH       0.042700
     63 H21          7.2050     3.0450     2.0860 hc         1 5WH       0.042700
     64 H22          6.0000     1.8160     2.4860 hc         1 5WH       0.042700
     65 H23          6.2450     2.3330    -2.9200 hc         1 5WH       0.087700
     66 H24          6.9150     5.1940    -1.8740 hc         1 5WH       0.080700
     67 H25          6.1580     4.7730    -3.4860 hc         1 5WH       0.080700
     68 H26          4.2160     3.6960    -2.2870 hc         1 5WH       0.080700
     69 H27          4.9810     4.1140    -0.6770 hc         1 5WH       0.080700
@<TRIPOS>BOND
     1     1     2 1   
     2     1     4 2   
     3     2     3 2   
     4     2    43 1   
     5     3     6 1   
     6     3    44 1   
     7     4     5 1   
     8     4    11 1   
     9     5     6 1   
    10     5     9 2   
    11     6     7 1   
    12     7     8 2   
    13     7    10 1   
    14     8     9 1   
    15     9    17 1   
    16    10    12 1   
    17    10    16 1   
    18    10    45 1   
    19    11    46 1   
    20    11    47 1   
    21    12    15 1   
    22    12    48 1   
    23    12    49 1   
    24    13    14 1   
    25    13    16 1   
    26    13    50 1   
    27    13    51 1   
    28    14    15 1   
    29    14    37 1   
    30    14    52 1   
    31    15    38 1   
    32    16    53 1   
    33    16    54 1   
    34    17    18 ar  
    35    17    22 ar  
    36    18    19 ar  
    37    18    23 1   
    38    19    20 ar  
    39    19    55 1   
    40    20    21 ar  
    41    20    24 1   
    42    21    22 ar  
    43    21    56 1   
    44    22    57 1   
    45    24    25 2   
    46    24    26 1   
    47    26    27 1   
    48    26    58 1   
    49    27    28 ar  
    50    27    32 ar  
    51    28    29 ar  
    52    29    30 ar  
    53    29    59 1   
    54    30    31 ar  
    55    30    60 1   
    56    31    32 ar  
    57    31    33 1   
    58    32    61 1   
    59    33    34 1   
    60    33    35 1   
    61    33    36 1   
    62    37    62 1   
    63    37    63 1   
    64    37    64 1   
    65    38    39 2   
    66    38    40 1   
    67    40    41 1   
    68    40    42 1   
    69    40    65 1   
    70    41    42 1   
    71    41    66 1   
    72    41    67 1   
    73    42    68 1   
    74    42    69 1   
@<TRIPOS>SUBSTRUCTURE
     1 5WH         1 TEMP              0 ****  ****    0 ROOT
