@<TRIPOS>MOLECULE
5WH
   69    74     1     0     0
SMALL
abcg2


@<TRIPOS>ATOM
      1 N01          2.7870    -4.9170    -0.9100 nc         1 5WH      -0.774000
      2 C02          4.0880    -4.5430    -1.0600 cc         1 5WH       0.362900
      3 C03          4.5740    -3.3230    -0.7590 cd         1 5WH      -0.229000
      4 C04          1.9280    -4.0350    -0.4710 cd         1 5WH       0.668900
      5 C05          2.3280    -2.6890    -0.1690 cd         1 5WH      -0.221000
      6 N06          3.6710    -2.3860    -0.2940 na         1 5WH       0.098200
      7 C07          3.8400    -1.1000     0.0930 cd         1 5WH       0.351800
      8 N08          2.6900    -0.5740     0.4540 nc         1 5WH      -0.540300
      9 C09          1.7400    -1.5240     0.2950 cc         1 5WH       0.093400
     10 C10          5.1660    -0.4240     0.1420 c6         1 5WH      -0.080000
     11 N11          0.6360    -4.3950    -0.3260 nv         1 5WH      -1.055900
     12 C12          5.0020     1.0880     0.0010 c6         1 5WH       0.114000
     13 C13          7.2110     0.0290     1.5300 c6         1 5WH      -0.084400
     14 C14          7.0320     1.5330     1.3170 c6         1 5WH       0.105700
     15 N15          6.2920     1.7500     0.0720 n          1 5WH      -0.410800
     16 C16          5.9020    -0.7440     1.4500 c6         1 5WH      -0.073400
     17 C17          0.3270    -1.2430     0.5590 ca         1 5WH      -0.036800
     18 C18         -0.0900    -0.7370     1.7870 ca         1 5WH       0.194000
     19 C19         -1.4060    -0.4440     2.0650 ca         1 5WH      -0.109000
     20 C20         -2.3650    -0.6320     1.0730 ca         1 5WH      -0.130600
     21 C21         -1.9850    -1.1430    -0.1640 ca         1 5WH      -0.110000
     22 C22         -0.6540    -1.4430    -0.4110 ca         1 5WH      -0.089000
     23 F23          0.8200    -0.5510     2.7480 f          1 5WH      -0.157000
     24 C24         -3.7850    -0.3150     1.4130 c          1 5WH       0.623700
     25 O25         -4.1990    -0.3970     2.5490 o          1 5WH      -0.522100
     26 N26         -4.5370     0.0900     0.3450 ns         1 5WH      -0.330900
     27 C27         -5.8930     0.4000     0.3450 ca         1 5WH       0.484900
     28 N28         -6.6840    -0.1890     1.2190 nb         1 5WH      -0.658000
     29 C29         -7.9780     0.1110     1.1940 ca         1 5WH       0.373900
     30 C30         -8.5460     0.9890     0.2930 ca         1 5WH      -0.152000
     31 C31         -7.7030     1.5910    -0.6360 ca         1 5WH      -0.130300
     32 C32         -6.3550     1.3040    -0.6180 ca         1 5WH      -0.165000
     33 C33         -8.2820     2.5580    -1.6270 c3         1 5WH       0.357300
     34 F34         -9.2510     1.9850    -2.3500 f          1 5WH      -0.108333
     35 F35         -8.8290     3.6090    -1.0060 f          1 5WH      -0.108333
     36 F36         -7.3720     3.0270    -2.4800 f          1 5WH      -0.108333
     37 C37          6.3750     2.2350     2.5010 c3         1 5WH      -0.107100
     38 C38          6.7530     2.6450    -0.8350 c          1 5WH       0.639100
     39 O39          7.7350     3.3450    -0.6080 o          1 5WH      -0.613100
     40 C40          6.0390     2.7640    -2.1410 cx         1 5WH      -0.238700
     41 C41          6.7320     3.4910    -3.2590 cx         1 5WH      -0.100900
     42 C42          5.5930     4.1440    -2.5640 cx         1 5WH      -0.100900
     43 H1           4.7640    -5.3010    -1.4330 h4         1 5WH       0.032100
     44 H2           5.6090    -3.0360    -0.8580 h4         1 5WH       0.158000
     45 H3           5.7750    -0.7740    -0.6990 hc         1 5WH       0.062700
     46 H4           0.4350    -5.3810    -0.3750 hn         1 5WH       0.491500
     47 H5           0.0300    -3.8630     0.2750 hn         1 5WH       0.491500
     48 H6           4.5010     1.3300    -0.9300 h1         1 5WH       0.064700
     49 H7           4.3540     1.4630     0.7980 h1         1 5WH       0.064700
     50 H8           7.9020    -0.3520     0.7730 hc         1 5WH       0.049200
     51 H9           7.6840    -0.1400     2.5000 hc         1 5WH       0.049200
     52 H10          8.0190     1.9690     1.1770 h1         1 5WH       0.085700
     53 H11          5.2520    -0.4900     2.2930 hc         1 5WH       0.051200
     54 H12          6.0990    -1.8150     1.5260 hc         1 5WH       0.051200
     55 H13         -1.6800    -0.0670     3.0410 ha         1 5WH       0.156000
     56 H14         -2.7140    -1.3290    -0.9410 ha         1 5WH       0.123000
     57 H15         -0.3650    -1.8280    -1.3800 ha         1 5WH       0.133000
     58 H16         -4.0340     0.3560    -0.4880 hn         1 5WH       0.161000
     59 H17         -8.5980    -0.3870     1.9300 h4         1 5WH       0.033100
     60 H18         -9.6090     1.1860     0.3240 ha         1 5WH       0.143000
     61 H19         -5.6610     1.7610    -1.3110 ha         1 5WH       0.140000
     62 H20          7.0120     2.1470     3.3820 hc         1 5WH       0.042700
     63 H21          6.2410     3.2970     2.2950 hc         1 5WH       0.042700
     64 H22          5.4020     1.8170     2.7580 hc         1 5WH       0.042700
     65 H23          5.4000     1.9480    -2.4490 hc         1 5WH       0.087700
     66 H24          7.7270     3.8690    -3.0730 hc         1 5WH       0.080700
     67 H25          6.5690     3.1040    -4.2560 hc         1 5WH       0.080700
     68 H26          4.6410     4.2180    -3.0720 hc         1 5WH       0.080700
     69 H27          5.8100     4.9620    -1.8900 hc         1 5WH       0.080700
@<TRIPOS>BOND
     1     1     2 1   
     2     1     4 2   
     3     2     3 2   
     4     2    43 1   
     5     3     6 1   
     6     3    44 1   
     7     4     5 1   
     8     4    11 1   
     9     5     6 1   
    10     5     9 2   
    11     6     7 1   
    12     7     8 2   
    13     7    10 1   
    14     8     9 1   
    15     9    17 1   
    16    10    12 1   
    17    10    16 1   
    18    10    45 1   
    19    11    46 1   
    20    11    47 1   
    21    12    15 1   
    22    12    48 1   
    23    12    49 1   
    24    13    14 1   
    25    13    16 1   
    26    13    50 1   
    27    13    51 1   
    28    14    15 1   
    29    14    37 1   
    30    14    52 1   
    31    15    38 1   
    32    16    53 1   
    33    16    54 1   
    34    17    18 ar  
    35    17    22 ar  
    36    18    19 ar  
    37    18    23 1   
    38    19    20 ar  
    39    19    55 1   
    40    20    21 ar  
    41    20    24 1   
    42    21    22 ar  
    43    21    56 1   
    44    22    57 1   
    45    24    25 2   
    46    24    26 1   
    47    26    27 1   
    48    26    58 1   
    49    27    28 ar  
    50    27    32 ar  
    51    28    29 ar  
    52    29    30 ar  
    53    29    59 1   
    54    30    31 ar  
    55    30    60 1   
    56    31    32 ar  
    57    31    33 1   
    58    32    61 1   
    59    33    34 1   
    60    33    35 1   
    61    33    36 1   
    62    37    62 1   
    63    37    63 1   
    64    37    64 1   
    65    38    39 2   
    66    38    40 1   
    67    40    41 1   
    68    40    42 1   
    69    40    65 1   
    70    41    42 1   
    71    41    66 1   
    72    41    67 1   
    73    42    68 1   
    74    42    69 1   
@<TRIPOS>SUBSTRUCTURE
     1 5WH         1 TEMP              0 ****  ****    0 ROOT
