@<TRIPOS>MOLECULE
5WI
   38    38     1     0     0
SMALL
No Charge or Current Charge


@<TRIPOS>ATOM
      1 C1          18.8810    34.9580   162.9600 c6         1 5WI       0.032700
      2 C2          17.7700    33.9710   163.4320 c          1 5WI       0.571000
      3 C4          17.7140    32.9030   161.1520 ce         1 5WI      -0.018600
      4 C5          18.9780    33.6570   160.7590 c          1 5WI       0.562200
      5 C9          17.0650    32.0930   160.2780 c2         1 5WI      -0.226200
      6 C10         18.3760    36.4510   162.8360 c3         1 5WI      -0.074700
      7 C11         15.7810    31.3010   160.4990 c3         1 5WI       0.224200
      8 C12         14.5330    32.2140   160.2940 c3         1 5WI       0.126600
      9 C14         15.7450    30.0680   159.5660 c3         1 5WI      -0.107100
     10 C16         17.1520    36.8110   163.7200 c3         1 5WI      -0.092100
     11 C17         19.5000    37.5010   163.0900 c3         1 5WI      -0.077400
     12 C18         20.7230    37.4160   162.1520 c3         1 5WI      -0.093100
     13 N3          17.2910    33.1060   162.4830 ns         1 5WI      -0.416100
     14 N6          19.5040    34.5420   161.6760 ns         1 5WI      -0.494900
     15 O7          19.5310    33.5120   159.6800 o          1 5WI      -0.542000
     16 O8          17.3790    33.9020   164.5890 o          1 5WI      -0.535000
     17 O13         13.3260    31.5370   160.7050 oh         1 5WI      -0.671000
     18 O15         15.7320    30.8150   161.8410 oh         1 5WI      -0.673000
     19 H1          19.6480    34.9110   163.7460 h1         1 5WI       0.092700
     20 H3          17.4590    31.9890   159.2660 ha         1 5WI       0.215000
     21 H5          18.0310    36.5990   161.8040 hc         1 5WI       0.053700
     22 H6          14.4700    32.5010   159.2350 h1         1 5WI       0.035700
     23 H7          14.6640    33.1370   160.8750 h1         1 5WI       0.035700
     24 H8          14.8580    29.4520   159.7530 hc         1 5WI       0.049367
     25 H9          15.7250    30.3770   158.5140 hc         1 5WI       0.049367
     26 H10         16.6310    29.4400   159.7200 hc         1 5WI       0.049367
     27 H11         16.8630    37.8590   163.5760 hc         1 5WI       0.043033
     28 H12         16.2780    36.2010   163.4590 hc         1 5WI       0.043033
     29 H13         17.3780    36.6670   164.7830 hc         1 5WI       0.043033
     30 H14         19.0740    38.5070   162.9870 hc         1 5WI       0.044200
     31 H15         19.8460    37.4190   164.1290 hc         1 5WI       0.044200
     32 H16         21.3800    38.2790   162.3110 hc         1 5WI       0.035367
     33 H17         21.3110    36.5120   162.3480 hc         1 5WI       0.035367
     34 H18         20.4100    37.4160   161.1010 hc         1 5WI       0.035367
     35 H19         16.5560    32.4700   162.7780 hn         1 5WI       0.354500
     36 H20         20.3530    35.0100   161.3820 hn         1 5WI       0.325500
     37 H21         12.5730    32.1350   160.4960 ho         1 5WI       0.452000
     38 H22         14.7720    30.6460   161.9860 ho         1 5WI       0.465000
@<TRIPOS>BOND
     1     1     2 1   
     2     1     6 1   
     3     1    14 1   
     4     1    19 1   
     5     2    13 1   
     6     2    16 2   
     7     3     4 1   
     8     3     5 2   
     9     3    13 1   
    10     4    14 1   
    11     4    15 2   
    12     5     7 1   
    13     5    20 1   
    14     6    10 1   
    15     6    11 1   
    16     6    21 1   
    17     7     8 1   
    18     7     9 1   
    19     7    18 1   
    20     8    17 1   
    21     8    22 1   
    22     8    23 1   
    23     9    24 1   
    24     9    25 1   
    25     9    26 1   
    26    10    27 1   
    27    10    28 1   
    28    10    29 1   
    29    11    12 1   
    30    11    30 1   
    31    11    31 1   
    32    12    32 1   
    33    12    33 1   
    34    12    34 1   
    35    13    35 1   
    36    14    36 1   
    37    17    37 1   
    38    18    38 1   
@<TRIPOS>SUBSTRUCTURE
     1 5WI         1 TEMP              0 ****  ****    0 ROOT
