@<TRIPOS>MOLECULE
5WI
   38    38     1     0     0
SMALL
bcc


@<TRIPOS>ATOM
      1 C1          18.9480    34.7930   163.1360 c6         1 5WI       0.032700
      2 C2          18.0330    33.7210   163.6920 c          1 5WI       0.713500
      3 C4          17.9680    32.8250   161.4310 ce         1 5WI      -0.018600
      4 C5          19.3190    33.4030   161.1430 c          1 5WI       0.704700
      5 C9          17.2660    32.2540   160.4500 c2         1 5WI      -0.176200
      6 C10         18.1460    36.0140   162.6020 c3         1 5WI      -0.074700
      7 C11         15.8960    31.6430   160.5720 c3         1 5WI       0.201000
      8 C12         14.8720    32.7860   160.5600 c3         1 5WI       0.103400
      9 C14         15.6570    30.6790   159.4110 c3         1 5WI      -0.107100
     10 C16         16.8640    36.2800   163.3890 c3         1 5WI      -0.092100
     11 C17         18.9940    37.2900   162.5930 c3         1 5WI      -0.077400
     12 C18         20.3040    37.2550   161.8150 c3         1 5WI      -0.093100
     13 N3          17.5550    32.8650   162.7630 ns         1 5WI      -0.483100
     14 N6          19.7950    34.1960   162.1180 ns         1 5WI      -0.561900
     15 O7          19.9390    33.1350   160.1270 o          1 5WI      -0.617500
     16 O8          17.7200    33.6630   164.8650 o          1 5WI      -0.610500
     17 O13         13.5890    32.2280   160.7310 oh         1 5WI      -0.608800
     18 O15         15.8190    30.9440   161.8060 oh         1 5WI      -0.610800
     19 H1          19.5920    35.1170   163.9560 h1         1 5WI       0.092700
     20 H3          17.7160    32.2530   159.4660 ha         1 5WI       0.165000
     21 H5          17.8600    35.7790   161.5710 hc         1 5WI       0.053700
     22 H6          14.9580    33.3350   159.6140 h1         1 5WI       0.035700
     23 H7          15.1130    33.4890   161.3670 h1         1 5WI       0.035700
     24 H8          14.6710    30.2180   159.4740 hc         1 5WI       0.049367
     25 H9          15.7230    31.2000   158.4550 hc         1 5WI       0.049367
     26 H10         16.4040    29.8850   159.4140 hc         1 5WI       0.049367
     27 H11         16.3800    37.1770   163.0020 hc         1 5WI       0.043033
     28 H12         16.1440    35.4660   163.3010 hc         1 5WI       0.043033
     29 H13         17.0640    36.4460   164.4480 hc         1 5WI       0.043033
     30 H14         18.3700    38.0870   162.1810 hc         1 5WI       0.044200
     31 H15         19.2000    37.5750   163.6300 hc         1 5WI       0.044200
     32 H16         20.7170    38.2610   161.7340 hc         1 5WI       0.035367
     33 H17         21.0670    36.6480   162.3040 hc         1 5WI       0.035367
     34 H18         20.1660    36.8760   160.8010 hc         1 5WI       0.035367
     35 H19         16.8510    32.1870   163.0340 hn         1 5WI       0.354500
     36 H20         20.7040    34.6050   161.9620 hn         1 5WI       0.325500
     37 H21         12.9940    32.9150   161.0440 ho         1 5WI       0.413000
     38 H22         14.8850    30.7930   161.9980 ho         1 5WI       0.426000
@<TRIPOS>BOND
     1     1     2 1   
     2     1     6 1   
     3     1    14 1   
     4     1    19 1   
     5     2    13 1   
     6     2    16 2   
     7     3     4 1   
     8     3     5 2   
     9     3    13 1   
    10     4    14 1   
    11     4    15 2   
    12     5     7 1   
    13     5    20 1   
    14     6    10 1   
    15     6    11 1   
    16     6    21 1   
    17     7     8 1   
    18     7     9 1   
    19     7    18 1   
    20     8    17 1   
    21     8    22 1   
    22     8    23 1   
    23     9    24 1   
    24     9    25 1   
    25     9    26 1   
    26    10    27 1   
    27    10    28 1   
    28    10    29 1   
    29    11    12 1   
    30    11    30 1   
    31    11    31 1   
    32    12    32 1   
    33    12    33 1   
    34    12    34 1   
    35    13    35 1   
    36    14    36 1   
    37    17    37 1   
    38    18    38 1   
@<TRIPOS>SUBSTRUCTURE
     1 5WI         1 TEMP              0 ****  ****    0 ROOT
