@<TRIPOS>MOLECULE
5WJ
   59    62     1     0     0
SMALL
No Charge or Current Charge


@<TRIPOS>ATOM
      1 C10          5.1010     3.0080    -1.5500 c3         1 5WJ      -0.064900
      2 C7           3.5030     2.0380     1.2770 c3         1 5WJ       0.219800
      3 C1           0.9060    -2.1080     0.3730 ca         1 5WJ      -0.075000
      4 C2           1.3940    -3.2140    -0.3560 ca         1 5WJ       0.153100
      5 C3           0.8720    -5.1670    -1.7840 c3         1 5WJ       0.148900
      6 C4           2.7800    -3.4750    -0.4020 ca         1 5WJ      -0.207000
      7 C5           3.6820    -2.6380     0.2730 ca         1 5WJ       0.009000
      8 C6           3.2030    -1.5330     1.0000 ca         1 5WJ      -0.320500
      9 C16         -4.1600     1.4140    -2.6800 c          1 5WJ       0.554600
     10 N3          -2.8980     0.9150    -2.4360 ns         1 5WJ      -0.235900
     11 N2          -2.4710     0.1340    -1.3880 nc         1 5WJ      -0.419300
     12 C17         -5.1770     1.0070    -1.6490 ca         1 5WJ      -0.144600
     13 C22         -4.7670     0.1960    -0.5560 ca         1 5WJ      -0.116900
     14 C21         -5.7410    -0.2140     0.3840 ca         1 5WJ      -0.104000
     15 C20         -7.0810     0.1900     0.2540 ca         1 5WJ      -0.081000
     16 C19         -7.4710     1.0040    -0.8190 ca         1 5WJ      -0.112000
     17 C18         -6.5230     1.4100    -1.7710 ca         1 5WJ      -0.048000
     18 C15         -3.3380    -0.2210    -0.4350 cd         1 5WJ       0.372900
     19 C14         -2.7970    -1.0730     0.6850 c3         1 5WJ      -0.186700
     20 C           -1.3000    -0.8860     0.9180 c          1 5WJ       0.619100
     21 O           -0.8690     0.0830     1.5310 o          1 5WJ      -0.560100
     22 C13          1.8190    -1.2730     1.0560 ca         1 5WJ      -0.001000
     23 O1           0.4780    -4.0180    -1.0110 os         1 5WJ      -0.350100
     24 S            4.3560    -0.4460     1.8620 sy         1 5WJ       1.178600
     25 O2           3.7190    -0.0270     3.1170 o          1 5WJ      -0.536000
     26 O3           5.7090    -1.0130     1.8580 o          1 5WJ      -0.536000
     27 N1           4.4100     0.9390     0.8590 n3         1 5WJ      -0.758500
     28 C12          4.4690     0.6520    -0.5920 c3         1 5WJ       0.219800
     29 C11          5.4980     1.5330    -1.3340 c3         1 5WJ      -0.077400
     30 C9           4.7260     3.7760    -0.2650 c3         1 5WJ      -0.064900
     31 C8           3.4060     3.2860     0.3680 c3         1 5WJ      -0.077400
     32 H1           5.9410     3.5240    -2.0330 hc         1 5WJ       0.040700
     33 H2           4.2650     3.0560    -2.2580 hc         1 5WJ       0.040700
     34 H3           2.4810     1.6560     1.4010 h1         1 5WJ       0.047950
     35 H4           3.8250     2.3940     2.2660 h1         1 5WJ       0.047950
     36 H5          -0.0110    -5.6550    -2.2150 h1         1 5WJ       0.046700
     37 H6           1.5340    -4.8740    -2.6080 h1         1 5WJ       0.046700
     38 H7           1.3920    -5.9000    -1.1550 h1         1 5WJ       0.046700
     39 H8           3.1790    -4.3200    -0.9560 ha         1 5WJ       0.122000
     40 H9           4.7490    -2.8530     0.2240 ha         1 5WJ       0.139000
     41 H10         -2.2020     1.1700    -3.1330 hn         1 5WJ       0.354500
     42 H11         -5.4780    -0.8530     1.2230 ha         1 5WJ       0.120000
     43 H12         -7.8180    -0.1310     0.9870 ha         1 5WJ       0.120000
     44 H13         -8.5090     1.3150    -0.9170 ha         1 5WJ       0.124000
     45 H14         -6.8380     2.0330    -2.6070 ha         1 5WJ       0.143000
     46 H15         -3.2960    -0.8020     1.6200 hc         1 5WJ       0.080200
     47 H16         -3.0050    -2.1210     0.4410 hc         1 5WJ       0.080200
     48 H17         -1.0220    -2.6110    -0.1080 hn         1 5WJ       0.162000
     49 H18          1.4710    -0.4240     1.6360 ha         1 5WJ       0.157000
     50 H19          4.8030    -0.3800    -0.7600 h1         1 5WJ       0.047950
     51 H20          3.4780     0.7420    -1.0580 h1         1 5WJ       0.047950
     52 H21          5.6870     1.0850    -2.3170 hc         1 5WJ       0.046450
     53 H22          6.4510     1.4930    -0.7910 hc         1 5WJ       0.046450
     54 H23          5.5420     3.7190     0.4660 hc         1 5WJ       0.040700
     55 H24          4.6110     4.8360    -0.5250 hc         1 5WJ       0.040700
     56 H25          2.6750     3.0920    -0.4260 hc         1 5WJ       0.046450
     57 H26          2.9820     4.1000     0.9680 hc         1 5WJ       0.046450
     58 N           -0.5050    -1.8920     0.3830 ns         1 5WJ      -0.144000
     59 O4          -4.4120     2.1150    -3.6510 o          1 5WJ      -0.538000
@<TRIPOS>BOND
     1     1    29 1   
     2     1    30 1   
     3     1    32 1   
     4     1    33 1   
     5     2    27 1   
     6     2    31 1   
     7     2    34 1   
     8     2    35 1   
     9     3     4 ar  
    10     3    22 ar  
    11     3    58 1   
    12     4     6 ar  
    13     4    23 1   
    14     5    23 1   
    15     5    36 1   
    16     5    37 1   
    17     5    38 1   
    18     6     7 ar  
    19     6    39 1   
    20     7     8 ar  
    21     7    40 1   
    22     8    22 ar  
    23     8    24 1   
    24     9    10 1   
    25     9    12 1   
    26     9    59 2   
    27    10    11 1   
    28    10    41 1   
    29    11    18 2   
    30    12    13 ar  
    31    12    17 ar  
    32    13    14 ar  
    33    13    18 1   
    34    14    15 ar  
    35    14    42 1   
    36    15    16 ar  
    37    15    43 1   
    38    16    17 ar  
    39    16    44 1   
    40    17    45 1   
    41    18    19 1   
    42    19    20 1   
    43    19    46 1   
    44    19    47 1   
    45    20    21 2   
    46    20    58 1   
    47    22    49 1   
    48    24    25 2   
    49    24    26 2   
    50    24    27 1   
    51    27    28 1   
    52    28    29 1   
    53    28    50 1   
    54    28    51 1   
    55    29    52 1   
    56    29    53 1   
    57    30    31 1   
    58    30    54 1   
    59    30    55 1   
    60    31    56 1   
    61    31    57 1   
    62    48    58 1   
@<TRIPOS>SUBSTRUCTURE
     1 5WJ         1 TEMP              0 ****  ****    0 ROOT
