@<TRIPOS>MOLECULE
5WJ
   59    62     1     0     0
SMALL
bcc


@<TRIPOS>ATOM
      1 C10          5.5470     3.1170    -1.4130 c3         1 5WJ      -0.064900
      2 C7           2.7520     1.9260     0.0800 c3         1 5WJ       0.219800
      3 C1           0.6790    -2.2310     0.4230 ca         1 5WJ       0.017600
      4 C2           1.2480    -3.3910    -0.1430 ca         1 5WJ       0.153100
      5 C3           0.8730    -5.4570    -1.2490 c3         1 5WJ       0.125700
      6 C4           2.6300    -3.5330    -0.1860 ca         1 5WJ      -0.225000
      7 C5           3.4540    -2.5400     0.3240 ca         1 5WJ      -0.009000
      8 C6           2.8880    -1.4040     0.8750 ca         1 5WJ      -0.320500
      9 C16         -3.5800     2.1910    -1.3620 c          1 5WJ       0.697100
     10 N3          -2.4070     1.7240    -0.8460 ns         1 5WJ      -0.302900
     11 N2          -2.2090     0.6130    -0.1330 nc         1 5WJ      -0.419300
     12 C17         -4.7300     1.3340    -1.0740 ca         1 5WJ      -0.144600
     13 C22         -4.5480     0.1630    -0.3260 ca         1 5WJ      -0.116900
     14 C21         -5.6530    -0.6520    -0.0530 ca         1 5WJ      -0.122000
     15 C20         -6.9020    -0.2980    -0.5210 ca         1 5WJ      -0.099000
     16 C19         -7.0760     0.8700    -1.2670 ca         1 5WJ      -0.130000
     17 C18         -5.9970     1.6840    -1.5420 ca         1 5WJ      -0.066000
     18 C15         -3.2100    -0.1460     0.1280 cd         1 5WJ       0.372900
     19 C14         -2.9420    -1.3860     0.9360 c3         1 5WJ      -0.186700
     20 C           -1.4800    -1.4740     1.3250 c          1 5WJ       0.686100
     21 O           -1.0500    -0.9970     2.3570 o          1 5WJ      -0.560100
     22 C13          1.5060    -1.2460     0.9310 ca         1 5WJ      -0.019000
     23 O1           0.3780    -4.2900    -0.6130 os         1 5WJ      -0.326900
     24 S            3.9130    -0.0700     1.4200 sy         1 5WJ       1.320200
     25 O2           3.2790     0.5400     2.5790 o          1 5WJ      -0.606800
     26 O3           5.2720    -0.5770     1.5360 o          1 5WJ      -0.606800
     27 N1           3.9060     1.0400     0.2130 n3         1 5WJ      -0.758500
     28 C12          4.6820     0.7400    -0.9920 c3         1 5WJ       0.219800
     29 C11          5.8860     1.6620    -1.1070 c3         1 5WJ      -0.077400
     30 C9           4.4650     3.7530    -0.5390 c3         1 5WJ      -0.064900
     31 C8           3.0750     3.1550    -0.7660 c3         1 5WJ      -0.077400
     32 H1           6.4630     3.7080    -1.3330 hc         1 5WJ       0.040700
     33 H2           5.2280     3.2000    -2.4570 hc         1 5WJ       0.040700
     34 H3           1.8970     1.4020    -0.3640 h1         1 5WJ       0.047950
     35 H4           2.4590     2.2520     1.0750 h1         1 5WJ       0.047950
     36 H5           0.0010    -6.0290    -1.5560 h1         1 5WJ       0.046700
     37 H6           1.4670    -5.2130    -2.1320 h1         1 5WJ       0.046700
     38 H7           1.4730    -6.0630    -0.5670 h1         1 5WJ       0.046700
     39 H8           3.0850    -4.4180    -0.6070 ha         1 5WJ       0.140000
     40 H9           4.5260    -2.6760     0.2910 ha         1 5WJ       0.157000
     41 H10         -1.5700     2.2660    -1.0090 hn         1 5WJ       0.354500
     42 H11         -5.5380    -1.5600     0.5230 ha         1 5WJ       0.138000
     43 H12         -7.7530    -0.9310    -0.3070 ha         1 5WJ       0.138000
     44 H13         -8.0600     1.1370    -1.6270 ha         1 5WJ       0.142000
     45 H14         -6.1260     2.5900    -2.1180 ha         1 5WJ       0.161000
     46 H15         -3.5430    -1.3690     1.8470 hc         1 5WJ       0.080200
     47 H16         -3.2550    -2.2690     0.3710 hc         1 5WJ       0.080200
     48 H17         -1.1910    -2.5430    -0.3710 hn         1 5WJ       0.328500
     49 H18          1.0730    -0.3550     1.3610 ha         1 5WJ       0.175000
     50 H19          5.0210    -0.2970    -0.9770 h1         1 5WJ       0.047950
     51 H20          4.0280     0.8190    -1.8640 h1         1 5WJ       0.047950
     52 H21          6.5430     1.2780    -1.8930 hc         1 5WJ       0.046450
     53 H22          6.4500     1.5930    -0.1740 hc         1 5WJ       0.046450
     54 H23          4.7370     3.6920     0.5190 hc         1 5WJ       0.040700
     55 H24          4.4250     4.8170    -0.7800 hc         1 5WJ       0.040700
     56 H25          2.9530     2.9260    -1.8280 hc         1 5WJ       0.046450
     57 H26          2.3050     3.8950    -0.5380 hc         1 5WJ       0.046450
     58 N           -0.7140    -2.1130     0.4070 ns         1 5WJ      -0.470100
     59 O4          -3.6260     3.2320    -2.0010 o          1 5WJ      -0.613500
@<TRIPOS>BOND
     1     1    29 1   
     2     1    30 1   
     3     1    32 1   
     4     1    33 1   
     5     2    27 1   
     6     2    31 1   
     7     2    34 1   
     8     2    35 1   
     9     3     4 ar  
    10     3    22 ar  
    11     3    58 1   
    12     4     6 ar  
    13     4    23 1   
    14     5    23 1   
    15     5    36 1   
    16     5    37 1   
    17     5    38 1   
    18     6     7 ar  
    19     6    39 1   
    20     7     8 ar  
    21     7    40 1   
    22     8    22 ar  
    23     8    24 1   
    24     9    10 1   
    25     9    12 1   
    26     9    59 2   
    27    10    11 1   
    28    10    41 1   
    29    11    18 2   
    30    12    13 ar  
    31    12    17 ar  
    32    13    14 ar  
    33    13    18 1   
    34    14    15 ar  
    35    14    42 1   
    36    15    16 ar  
    37    15    43 1   
    38    16    17 ar  
    39    16    44 1   
    40    17    45 1   
    41    18    19 1   
    42    19    20 1   
    43    19    46 1   
    44    19    47 1   
    45    20    21 2   
    46    20    58 1   
    47    22    49 1   
    48    24    25 2   
    49    24    26 2   
    50    24    27 1   
    51    27    28 1   
    52    28    29 1   
    53    28    50 1   
    54    28    51 1   
    55    29    52 1   
    56    29    53 1   
    57    30    31 1   
    58    30    54 1   
    59    30    55 1   
    60    31    56 1   
    61    31    57 1   
    62    48    58 1   
@<TRIPOS>SUBSTRUCTURE
     1 5WJ         1 TEMP              0 ****  ****    0 ROOT
