@<TRIPOS>MOLECULE
5WK
   26    27     1     0     0
SMALL
No Charge or Current Charge


@<TRIPOS>ATOM
      1 C10          2.6770     0.1310     0.4240 c3         1 5WK       0.214300
      2 C01         -3.5310     0.6530    -0.3230 ca         1 5WK       0.188100
      3 C02         -4.8390     0.1470    -0.2920 ca         1 5WK      -0.163000
      4 C03         -5.0800    -1.1780     0.0950 ca         1 5WK      -0.058000
      5 C04         -4.0000    -1.9970     0.4510 ca         1 5WK      -0.160000
      6 C05         -2.6880    -1.4970     0.4220 ca         1 5WK      -0.048000
      7 C06         -2.4220    -0.1600     0.0340 ca         1 5WK      -0.236500
      8 C07         -1.0300     0.3460     0.0120 cc         1 5WK       0.336500
      9 C08          0.1180    -0.3980     0.3520 cc         1 5WK      -0.146000
     10 C09          1.2030     0.4110     0.2020 cd         1 5WK      -0.244300
     11 N01          0.6680     1.6320    -0.2250 na         1 5WK       0.033800
     12 N           -0.7220     1.5850    -0.3420 nd         1 5WK      -0.558800
     13 F01          3.2710     1.2140     0.9790 f          1 5WK      -0.088500
     14 F02          2.8380    -0.8910     1.2990 f          1 5WK      -0.088500
     15 C            3.4070    -0.2050    -0.9040 c3         1 5WK       0.145300
     16 F03          4.6750    -0.6210    -0.6710 f          1 5WK      -0.094500
     17 F            2.7650    -1.1950    -1.5700 f          1 5WK      -0.094500
     18 H1          -2.3730     2.0920    -0.6560 ho         1 5WK       0.504000
     19 H2          -5.6730     0.7880    -0.5690 ha         1 5WK       0.130000
     20 H3          -6.0950    -1.5680     0.1180 ha         1 5WK       0.115000
     21 H4          -4.1800    -3.0270     0.7520 ha         1 5WK       0.118000
     22 H5          -1.8850    -2.1710     0.7070 ha         1 5WK       0.111000
     23 H6           0.1340    -1.4330     0.6720 ha         1 5WK       0.164000
     24 H7           1.1920     2.4850    -0.4320 hn         1 5WK       0.389000
     25 H8           3.4370     0.6820    -1.5450 h2         1 5WK       0.079700
     26 O           -3.3530     1.9440    -0.7040 oh         1 5WK      -0.547100
@<TRIPOS>BOND
     1     1    10 1   
     2     1    13 1   
     3     1    14 1   
     4     1    15 1   
     5     2     3 ar  
     6     2     7 ar  
     7     2    26 1   
     8     3     4 ar  
     9     3    19 1   
    10     4     5 ar  
    11     4    20 1   
    12     5     6 ar  
    13     5    21 1   
    14     6     7 ar  
    15     6    22 1   
    16     7     8 1   
    17     8     9 1   
    18     8    12 2   
    19     9    10 2   
    20     9    23 1   
    21    10    11 1   
    22    11    12 1   
    23    11    24 1   
    24    15    16 1   
    25    15    17 1   
    26    15    25 1   
    27    18    26 1   
@<TRIPOS>SUBSTRUCTURE
     1 5WK         1 TEMP              0 ****  ****    0 ROOT
