@<TRIPOS>MOLECULE
5WK
   26    27     1     0     0
SMALL
bcc


@<TRIPOS>ATOM
      1 C10          2.6420     0.2490     0.3780 c3         1 5WK       0.456900
      2 C01         -3.4550     0.6630    -0.2710 ca         1 5WK       0.188100
      3 C02         -4.7700     0.1970    -0.2550 ca         1 5WK      -0.181000
      4 C03         -5.0470    -1.1220     0.0550 ca         1 5WK      -0.076000
      5 C04         -4.0150    -2.0050     0.3560 ca         1 5WK      -0.178000
      6 C05         -2.7110    -1.5460     0.3440 ca         1 5WK      -0.066000
      7 C06         -2.4020    -0.2190     0.0380 ca         1 5WK      -0.236500
      8 C07         -1.0100     0.2300     0.0460 cc         1 5WK       0.401800
      9 C08          0.1580    -0.4910     0.3650 cc         1 5WK      -0.229300
     10 C09          1.1730     0.4190     0.2120 cd         1 5WK      -0.193600
     11 N01          0.6140     1.5770    -0.1770 na         1 5WK       0.033400
     12 N           -0.6970     1.4800    -0.2780 nd         1 5WK      -0.558800
     13 F01          3.2080     1.4320     0.7200 f          1 5WK      -0.209800
     14 F02          2.8820    -0.6320     1.3740 f          1 5WK      -0.209800
     15 C            3.3300    -0.2460    -0.8970 c3         1 5WK       0.387900
     16 F03          4.6460    -0.4240    -0.6560 f          1 5WK      -0.215800
     17 F            2.8020    -1.4470    -1.2230 f          1 5WK      -0.215800
     18 H1          -2.3060     2.1590    -0.5800 ho         1 5WK       0.465000
     19 H2          -5.5720     0.8850    -0.4920 ha         1 5WK       0.148000
     20 H3          -6.0740    -1.4620     0.0610 ha         1 5WK       0.133000
     21 H4          -4.2250    -3.0380     0.5950 ha         1 5WK       0.136000
     22 H5          -1.9090    -2.2360     0.5770 ha         1 5WK       0.129000
     23 H6           0.2500    -1.5200     0.6680 ha         1 5WK       0.182000
     24 H7           1.0650     2.4610    -0.3650 hn         1 5WK       0.338700
     25 H8           3.2000     0.4510    -1.7270 h2         1 5WK       0.079700
     26 O           -3.2640     1.9530    -0.5840 oh         1 5WK      -0.508100
@<TRIPOS>BOND
     1     1    10 1   
     2     1    13 1   
     3     1    14 1   
     4     1    15 1   
     5     2     3 ar  
     6     2     7 ar  
     7     2    26 1   
     8     3     4 ar  
     9     3    19 1   
    10     4     5 ar  
    11     4    20 1   
    12     5     6 ar  
    13     5    21 1   
    14     6     7 ar  
    15     6    22 1   
    16     7     8 1   
    17     8     9 1   
    18     8    12 2   
    19     9    10 2   
    20     9    23 1   
    21    10    11 1   
    22    11    12 1   
    23    11    24 1   
    24    15    16 1   
    25    15    17 1   
    26    15    25 1   
    27    18    26 1   
@<TRIPOS>SUBSTRUCTURE
     1 5WK         1 TEMP              0 ****  ****    0 ROOT
