@<TRIPOS>MOLECULE
5WL
   52    55     1     0     0
SMALL
No Charge or Current Charge


@<TRIPOS>ATOM
      1 CAA          2.9550    -5.2450    -1.0530 c3         1 5WL      -0.362100
      2 SBE          2.7080    -4.5520     0.5720 s6         1 5WL       1.216800
      3 OAC          1.3210    -4.8040     0.9740 o          1 5WL      -0.519000
      4 OAD          3.8140    -4.9900     1.4270 o          1 5WL      -0.519000
      5 NAS          2.9060    -2.9160     0.3210 ns         1 5WL      -0.595300
      6 CAV          2.0350    -2.0540    -0.2670 c          1 5WL       0.666300
      7 OAB          0.9980    -2.4360    -0.7850 o          1 5WL      -0.540100
      8 CAZ          2.4890    -0.6310    -0.2190 cc         1 5WL      -0.159300
      9 NAT          3.6560    -0.0660     0.3660 na         1 5WL      -0.208700
     10 CBB          3.6650     1.3030     0.1950 ca         1 5WL      -0.016200
     11 CAO          4.6180     2.2360     0.6230 ca         1 5WL      -0.131000
     12 CAW          4.3870     3.5940     0.3240 ca         1 5WL       0.156000
     13 Cl           5.5500     4.8100     0.8380 cl         1 5WL      -0.198000
     14 CAJ          3.2280     3.9880    -0.3840 ca         1 5WL      -0.138000
     15 CAN          2.2860     3.0230    -0.8020 ca         1 5WL      -0.036000
     16 CBD          2.5480     1.6800    -0.4900 ca         1 5WL      -0.124800
     17 CAY          1.8040     0.4680    -0.7620 cd         1 5WL      -0.031400
     18 CAR          0.4940     0.4590    -1.5200 c3         1 5WL      -0.011200
     19 CAP         -0.7270     0.5280    -0.5790 c3         1 5WL      -0.078400
     20 CAQ         -2.0690     0.5170    -1.3330 c3         1 5WL       0.166600
     21 OAU         -3.1170     0.5980    -0.3530 os         1 5WL      -0.347100
     22 CAX         -4.4570     0.6100    -0.6960 ca         1 5WL       0.166100
     23 CBC         -5.4270     0.6930     0.3330 ca         1 5WL      -0.059000
     24 CAM         -5.0460     0.7620     1.6920 ca         1 5WL      -0.070000
     25 CAG         -6.0230     0.8440     2.7000 ca         1 5WL      -0.126000
     26 CAF         -7.3850     0.8580     2.3630 ca         1 5WL      -0.095000
     27 CAK         -7.7740     0.7900     1.0160 ca         1 5WL      -0.113000
     28 CBA         -6.8020     0.7070     0.0000 ca         1 5WL      -0.005000
     29 CAL         -7.2030     0.6400    -1.3460 ca         1 5WL      -0.141000
     30 CAH         -6.2430     0.5570    -2.3650 ca         1 5WL      -0.067000
     31 CAI         -4.8760     0.5430    -2.0450 ca         1 5WL      -0.221000
     32 H1           3.9570    -4.9570    -1.3860 h1         1 5WL       0.110700
     33 H2           2.8620    -6.3320    -0.9620 h1         1 5WL       0.110700
     34 H3           2.1810    -4.8330    -1.7080 h1         1 5WL       0.110700
     35 H4           3.7540    -2.5770     0.7330 hn         1 5WL       0.344500
     36 H5           4.3860    -0.5750     0.8540 hn         1 5WL       0.359000
     37 H6           5.5050     1.9280     1.1690 ha         1 5WL       0.135000
     38 H7           3.0620     5.0390    -0.6060 ha         1 5WL       0.133000
     39 H8           1.3900     3.3170    -1.3440 ha         1 5WL       0.125000
     40 H9           0.4570     1.3140    -2.2060 hc         1 5WL       0.052700
     41 H10          0.4200    -0.4240    -2.1650 hc         1 5WL       0.052700
     42 H11         -0.6990    -0.3210     0.1140 hc         1 5WL       0.066700
     43 H12         -0.6620     1.4400     0.0270 hc         1 5WL       0.066700
     44 H13         -2.1120     1.3740    -2.0180 h1         1 5WL       0.034700
     45 H14         -2.1530    -0.4090    -1.9170 h1         1 5WL       0.034700
     46 H15         -3.9960     0.7530     1.9760 ha         1 5WL       0.126000
     47 H16         -5.7210     0.8970     3.7440 ha         1 5WL       0.113000
     48 H17         -8.1390     0.9210     3.1450 ha         1 5WL       0.111000
     49 H18         -8.8320     0.8010     0.7620 ha         1 5WL       0.112000
     50 H19         -8.2590     0.6500    -1.6040 ha         1 5WL       0.115000
     51 H20         -6.5590     0.5050    -3.4050 ha         1 5WL       0.109000
     52 H21         -4.1580     0.4780    -2.8570 ha         1 5WL       0.115000
@<TRIPOS>BOND
     1     1     2 1   
     2     1    32 1   
     3     1    33 1   
     4     1    34 1   
     5     2     3 2   
     6     2     4 2   
     7     2     5 1   
     8     5     6 1   
     9     5    35 1   
    10     6     7 2   
    11     6     8 1   
    12     8     9 1   
    13     8    17 2   
    14     9    10 1   
    15     9    36 1   
    16    10    11 ar  
    17    10    16 ar  
    18    11    12 ar  
    19    11    37 1   
    20    12    13 1   
    21    12    14 ar  
    22    14    15 ar  
    23    14    38 1   
    24    15    16 ar  
    25    15    39 1   
    26    16    17 1   
    27    17    18 1   
    28    18    19 1   
    29    18    40 1   
    30    18    41 1   
    31    19    20 1   
    32    19    42 1   
    33    19    43 1   
    34    20    21 1   
    35    20    44 1   
    36    20    45 1   
    37    21    22 1   
    38    22    23 ar  
    39    22    31 ar  
    40    23    24 ar  
    41    23    28 ar  
    42    24    25 ar  
    43    24    46 1   
    44    25    26 ar  
    45    25    47 1   
    46    26    27 ar  
    47    26    48 1   
    48    27    28 ar  
    49    27    49 1   
    50    28    29 ar  
    51    29    30 ar  
    52    29    50 1   
    53    30    31 ar  
    54    30    51 1   
    55    31    52 1   
@<TRIPOS>SUBSTRUCTURE
     1 5WL         1 TEMP              0 ****  ****    0 ROOT
