@<TRIPOS>MOLECULE
5WL
   52    55     1     0     0
SMALL
abcg2


@<TRIPOS>ATOM
      1 CAA          2.4040    -5.1440    -1.1080 c3         1 5WL      -0.362100
      2 SBE          2.9750    -4.4630     0.4230 s6         1 5WL       1.216800
      3 OAC          1.9480    -4.6190     1.4330 o          1 5WL      -0.519000
      4 OAD          4.3220    -4.9330     0.6890 o          1 5WL      -0.519000
      5 NAS          3.1660    -2.8210     0.1160 ns         1 5WL      -0.595300
      6 CAV          2.1100    -1.9560    -0.0830 c          1 5WL       0.666300
      7 OAB          0.9740    -2.3560    -0.2300 o          1 5WL      -0.540100
      8 CAZ          2.4630    -0.5370    -0.1060 cc         1 5WL      -0.159300
      9 NAT          3.6280    -0.0480     0.4470 na         1 5WL      -0.208700
     10 CBB          3.6670     1.2960     0.2740 ca         1 5WL      -0.016200
     11 CAO          4.6280     2.2200     0.6880 ca         1 5WL      -0.131000
     12 CAW          4.3910     3.5330     0.3540 ca         1 5WL       0.156000
     13 CL           5.5420     4.7400     0.8330 cl         1 5WL      -0.198000
     14 CAJ          3.2540     3.9480    -0.3620 ca         1 5WL      -0.138000
     15 CAN          2.3150     3.0230    -0.7570 ca         1 5WL      -0.036000
     16 CBD          2.5080     1.6730    -0.4350 ca         1 5WL      -0.124800
     17 CAY          1.7450     0.4920    -0.6720 cd         1 5WL      -0.031400
     18 CAR          0.4400     0.4310    -1.3910 c3         1 5WL      -0.011200
     19 CAP         -0.7540     0.5500    -0.4410 c3         1 5WL      -0.078400
     20 CAQ         -2.0560     0.4630    -1.2080 c3         1 5WL       0.166600
     21 OAU         -3.1210     0.5690    -0.2780 os         1 5WL      -0.347100
     22 CAX         -4.3880     0.5410    -0.7220 ca         1 5WL       0.166100
     23 CBC         -5.3880     0.6710     0.2900 ca         1 5WL      -0.059000
     24 CAM         -5.0590     0.8140     1.6580 ca         1 5WL      -0.070000
     25 CAG         -6.0430     0.9370     2.6030 ca         1 5WL      -0.126000
     26 CAF         -7.3990     0.9230     2.2250 ca         1 5WL      -0.095000
     27 CAK         -7.7440     0.7860     0.9080 ca         1 5WL      -0.113000
     28 CBA         -6.7530     0.6550    -0.0940 ca         1 5WL      -0.005000
     29 CAL         -7.0970     0.5110    -1.4600 ca         1 5WL      -0.141000
     30 CAH         -6.1140     0.3880    -2.3990 ca         1 5WL      -0.067000
     31 CAI         -4.7500     0.4010    -2.0390 ca         1 5WL      -0.221000
     32 H1           3.1480    -4.9550    -1.8780 h1         1 5WL       0.110700
     33 H2           2.2850    -6.2160    -0.9560 h1         1 5WL       0.110700
     34 H3           1.4500    -4.6960    -1.3690 h1         1 5WL       0.110700
     35 H4           4.1220    -2.5210    -0.0370 hn         1 5WL       0.344500
     36 H5           4.2690    -0.5660     1.0270 hn         1 5WL       0.359000
     37 H6           5.5100     1.9200     1.2360 ha         1 5WL       0.135000
     38 H7           3.1220     4.9950    -0.5980 ha         1 5WL       0.133000
     39 H8           1.4380     3.3470    -1.3040 ha         1 5WL       0.125000
     40 H9           0.4010     1.2400    -2.1260 hc         1 5WL       0.052700
     41 H10          0.3640    -0.4990    -1.9560 hc         1 5WL       0.052700
     42 H11         -0.7070    -0.2530     0.2980 hc         1 5WL       0.066700
     43 H12         -0.7060     1.4980     0.1000 hc         1 5WL       0.066700
     44 H13         -2.1200     1.2660    -1.9510 h1         1 5WL       0.034700
     45 H14         -2.1150    -0.4910    -1.7460 h1         1 5WL       0.034700
     46 H15         -4.0220     0.8300     1.9650 ha         1 5WL       0.126000
     47 H16         -5.7780     1.0460     3.6470 ha         1 5WL       0.113000
     48 H17         -8.1680     1.0210     2.9800 ha         1 5WL       0.111000
     49 H18         -8.7870     0.7730     0.6140 ha         1 5WL       0.112000
     50 H19         -8.1420     0.4990    -1.7460 ha         1 5WL       0.115000
     51 H20         -6.3710     0.2770    -3.4450 ha         1 5WL       0.109000
     52 H21         -4.0090     0.3010    -2.8200 ha         1 5WL       0.115000
@<TRIPOS>BOND
     1     1     2 1   
     2     1    32 1   
     3     1    33 1   
     4     1    34 1   
     5     2     3 2   
     6     2     4 2   
     7     2     5 1   
     8     5     6 1   
     9     5    35 1   
    10     6     7 2   
    11     6     8 1   
    12     8     9 1   
    13     8    17 2   
    14     9    10 1   
    15     9    36 1   
    16    10    11 ar  
    17    10    16 ar  
    18    11    12 ar  
    19    11    37 1   
    20    12    13 1   
    21    12    14 ar  
    22    14    15 ar  
    23    14    38 1   
    24    15    16 ar  
    25    15    39 1   
    26    16    17 1   
    27    17    18 1   
    28    18    19 1   
    29    18    40 1   
    30    18    41 1   
    31    19    20 1   
    32    19    42 1   
    33    19    43 1   
    34    20    21 1   
    35    20    44 1   
    36    20    45 1   
    37    21    22 1   
    38    22    23 ar  
    39    22    31 ar  
    40    23    24 ar  
    41    23    28 ar  
    42    24    25 ar  
    43    24    46 1   
    44    25    26 ar  
    45    25    47 1   
    46    26    27 ar  
    47    26    48 1   
    48    27    28 ar  
    49    27    49 1   
    50    28    29 ar  
    51    29    30 ar  
    52    29    50 1   
    53    30    31 ar  
    54    30    51 1   
    55    31    52 1   
@<TRIPOS>SUBSTRUCTURE
     1 5WL         1 TEMP              0 ****  ****    0 ROOT
