@<TRIPOS>MOLECULE
5WM
   27    28     1     0     0
SMALL
No Charge or Current Charge


@<TRIPOS>ATOM
      1 O1           4.3500    -0.5990    -1.3270 o          1 5WM      -0.547000
      2 O2           3.8250    -2.0280     0.7310 o          1 5WM      -0.547000
      3 C1           1.1150    -0.9070     0.7320 c3         1 5WM       0.249000
      4 C2          -0.3180    -0.7200     0.2540 ce         1 5WM       0.065600
      5 C3          -1.0090     0.6060     0.3440 ca         1 5WM      -0.033800
      6 C4          -0.4900     1.8290     0.8020 ca         1 5WM      -0.066000
      7 C5          -1.3280     2.9660     0.7960 ca         1 5WM      -0.069000
      8 C6          -2.6620     2.8760     0.3360 ca         1 5WM      -0.109000
      9 C7          -3.1780     1.6490    -0.1270 ca         1 5WM       0.007000
     10 C8          -2.3300     0.5320    -0.1120 ca         1 5WM      -0.239500
     11 C9          -1.1090    -1.7120    -0.2420 cf         1 5WM      -0.366100
     12 S1           3.6620    -0.8190    -0.0660 s6         1 5WM       1.253200
     13 N1           3.9700     0.4670     0.8340 n8         1 5WM      -1.042100
     14 N2           2.0770    -0.5610    -0.3350 n7         1 5WM      -0.884300
     15 S2          -2.7060    -1.1270    -0.6390 sy         1 5WM       0.999600
     16 O3          -2.8920    -1.1580    -2.0960 o          1 5WM      -0.510500
     17 O4          -3.6900    -1.7290     0.2700 o          1 5WM      -0.510500
     18 H1           1.2750    -0.2890     1.6260 h1         1 5WM       0.072200
     19 H2           1.2320    -1.9540     1.0460 h1         1 5WM       0.072200
     20 H3           0.5350     1.9090     1.1520 ha         1 5WM       0.143000
     21 H4          -0.9420     3.9200     1.1470 ha         1 5WM       0.125000
     22 H5          -3.2950     3.7600     0.3360 ha         1 5WM       0.123000
     23 H6          -4.2030     1.5730    -0.4850 ha         1 5WM       0.132000
     24 H7          -0.8770    -2.7660    -0.3970 h4         1 5WM       0.238000
     25 H8           4.7310     0.8760     0.3000 hn         1 5WM       0.476500
     26 H9           3.1580     1.0150     0.5660 hn         1 5WM       0.476500
     27 H10          1.9320    -1.2040    -1.1120 hn         1 5WM       0.493000
@<TRIPOS>BOND
     1     1    12 2   
     2     2    12 2   
     3     3     4 1   
     4     3    14 1   
     5     3    18 1   
     6     3    19 1   
     7     4     5 1   
     8     4    11 2   
     9     5     6 ar  
    10     5    10 ar  
    11     6     7 ar  
    12     6    20 1   
    13     7     8 ar  
    14     7    21 1   
    15     8     9 ar  
    16     8    22 1   
    17     9    10 ar  
    18     9    23 1   
    19    10    15 1   
    20    11    15 1   
    21    11    24 1   
    22    12    13 1   
    23    12    14 1   
    24    13    25 1   
    25    13    26 1   
    26    14    27 1   
    27    15    16 2   
    28    15    17 2   
@<TRIPOS>SUBSTRUCTURE
     1 5WM         1 TEMP              0 ****  ****    0 ROOT
