@<TRIPOS>MOLECULE
5WM
   27    28     1     0     0
SMALL
abcg2


@<TRIPOS>ATOM
      1 O1           3.1760     1.4690     0.7160 o          1 5WM      -0.547000
      2 O2           3.9220     0.4230    -1.4340 o          1 5WM      -0.547000
      3 C1           1.1020    -0.8320     0.8210 c3         1 5WM       0.249000
      4 C2          -0.3510    -0.7210     0.4900 ce         1 5WM       0.065600
      5 C3          -1.0020     0.5790     0.2230 ca         1 5WM      -0.033800
      6 C4          -0.4360     1.8430     0.2370 ca         1 5WM      -0.066000
      7 C5          -1.2490     2.9450    -0.0190 ca         1 5WM      -0.069000
      8 C6          -2.6020     2.7950    -0.2900 ca         1 5WM      -0.109000
      9 C7          -3.1820     1.5280    -0.3070 ca         1 5WM       0.007000
     10 C8          -2.3600     0.4560    -0.0490 ca         1 5WM      -0.239500
     11 C9          -1.1770    -1.7630     0.4110 cf         1 5WM      -0.366100
     12 S1           3.3500     0.2870    -0.1080 s6         1 5WM       1.253200
     13 N1           4.1660    -0.7900     0.8420 n8         1 5WM      -1.042100
     14 N2           1.8830    -0.4120    -0.3330 n7         1 5WM      -0.884300
     15 S2          -2.8210    -1.2540     0.0110 sy         1 5WM       0.999600
     16 O3          -3.2130    -1.7330    -1.3080 o          1 5WM      -0.510500
     17 O4          -3.7280    -1.5100     1.1240 o          1 5WM      -0.510500
     18 H1           1.3250    -0.1740     1.6630 h1         1 5WM       0.072200
     19 H2           1.3430    -1.8500     1.1290 h1         1 5WM       0.072200
     20 H3           0.6180     1.9840     0.4370 ha         1 5WM       0.143000
     21 H4          -0.8150     3.9360    -0.0080 ha         1 5WM       0.125000
     22 H5          -3.2120     3.6650    -0.4890 ha         1 5WM       0.123000
     23 H6          -4.2370     1.4000    -0.5120 ha         1 5WM       0.132000
     24 H7          -0.9540    -2.8100     0.5590 h4         1 5WM       0.238000
     25 H8           4.4490    -1.6240     0.3370 hn         1 5WM       0.476500
     26 H9           4.9660    -0.3660     1.3000 hn         1 5WM       0.476500
     27 H10          1.8750    -1.0650    -1.1090 hn         1 5WM       0.493000
@<TRIPOS>BOND
     1     1    12 2   
     2     2    12 2   
     3     3     4 1   
     4     3    14 1   
     5     3    18 1   
     6     3    19 1   
     7     4     5 1   
     8     4    11 2   
     9     5     6 ar  
    10     5    10 ar  
    11     6     7 ar  
    12     6    20 1   
    13     7     8 ar  
    14     7    21 1   
    15     8     9 ar  
    16     8    22 1   
    17     9    10 ar  
    18     9    23 1   
    19    10    15 1   
    20    11    15 1   
    21    11    24 1   
    22    12    13 1   
    23    12    14 1   
    24    13    25 1   
    25    13    26 1   
    26    14    27 1   
    27    15    16 2   
    28    15    17 2   
@<TRIPOS>SUBSTRUCTURE
     1 5WM         1 TEMP              0 ****  ****    0 ROOT
