@<TRIPOS>MOLECULE
5WN
   25    26     1     0     0
SMALL
No Charge or Current Charge


@<TRIPOS>ATOM
      1 S1           3.1850    -0.1330     0.6300 s6         1 5WN       1.254200
      2 O1           3.0860    -0.4840     2.0390 o          1 5WN      -0.535000
      3 O2           4.1410     0.8320     0.1080 o          1 5WN      -0.535000
      4 N1           3.4390    -1.5070    -0.1530 n8         1 5WN      -1.042100
      5 N2           1.7070     0.1780     0.0360 n7         1 5WN      -0.900300
      6 S2          -2.6550     1.7230    -1.2170 ss         1 5WN       0.087400
      7 C1          -1.0380     1.9050    -0.4860 cc         1 5WN      -0.120400
      8 C2          -0.6500     0.7820     0.2270 cd         1 5WN      -0.113400
      9 C3          -1.6400    -0.2790     0.2070 ca         1 5WN      -0.069800
     10 C4          -2.7540     0.0850    -0.5220 ca         1 5WN      -0.164000
     11 C5          -1.5590    -1.5440     0.8170 ca         1 5WN      -0.092000
     12 C6          -2.6390    -2.4370     0.6750 ca         1 5WN      -0.102000
     13 C7          -3.7780    -2.0610    -0.0690 ca         1 5WN      -0.102000
     14 C8          -3.8410    -0.7900    -0.6750 ca         1 5WN      -0.069000
     15 C9           0.6750     0.6880     0.9420 c3         1 5WN       0.275000
     16 H1           4.1490    -1.2000    -0.8150 hn         1 5WN       0.475000
     17 H2           4.0040    -2.0080     0.5290 hn         1 5WN       0.475000
     18 H3           1.4790    -0.7690    -0.2530 hn         1 5WN       0.486000
     19 H5          -0.6820    -1.8380     1.3880 ha         1 5WN       0.096000
     20 H6          -2.5950    -3.4200     1.1390 ha         1 5WN       0.117000
     21 H7          -4.6100    -2.7540    -0.1770 ha         1 5WN       0.119000
     22 H8          -4.7150    -0.4950    -1.2510 ha         1 5WN       0.126000
     23 H9           0.5560     0.0400     1.8220 h1         1 5WN       0.055200
     24 H10          0.9480     1.6860     1.3120 h1         1 5WN       0.055200
     25 H4          -0.4930     2.8280    -0.6400 h4         1 5WN       0.226000
@<TRIPOS>BOND
     1     1     2 2   
     2     1     3 2   
     3     1     4 1   
     4     1     5 1   
     5     4    16 1   
     6     4    17 1   
     7     5    15 1   
     8     5    18 1   
     9     6     7 1   
    10     6    10 1   
    11     7     8 2   
    12     7    25 1   
    13     8     9 1   
    14     8    15 1   
    15     9    10 ar  
    16     9    11 ar  
    17    10    14 ar  
    18    11    12 ar  
    19    11    19 1   
    20    12    13 ar  
    21    12    20 1   
    22    13    14 ar  
    23    13    21 1   
    24    14    22 1   
    25    15    23 1   
    26    15    24 1   
@<TRIPOS>SUBSTRUCTURE
     1 5WN         1 TEMP              0 ****  ****    0 ROOT
