@<TRIPOS>MOLECULE
5WN
   25    26     1     0     0
SMALL
abcg2


@<TRIPOS>ATOM
      1 S1           3.1200    -0.3300    -0.1340 s6         1 5WN       1.254200
      2 O1           3.8740     0.5610     0.7260 o          1 5WN      -0.535000
      3 O2           3.5880    -0.6830    -1.4580 o          1 5WN      -0.535000
      4 N1           2.9890    -1.7420     0.7010 n8         1 5WN      -1.042100
      5 N2           1.6460     0.3710    -0.3530 n7         1 5WN      -0.900300
      6 S2          -2.8600     1.9110    -0.1450 ss         1 5WN       0.087400
      7 C1          -1.1950     2.1000     0.2700 cc         1 5WN      -0.120400
      8 C2          -0.5520     0.9290     0.4780 cd         1 5WN      -0.113400
      9 C3          -1.4230    -0.2050     0.2970 ca         1 5WN      -0.069800
     10 C4          -2.7270     0.1840    -0.0510 ca         1 5WN      -0.164000
     11 C5          -1.1360    -1.5690     0.4280 ca         1 5WN      -0.092000
     12 C6          -2.1350    -2.4960     0.2140 ca         1 5WN      -0.102000
     13 C7          -3.4290    -2.0880    -0.1330 ca         1 5WN      -0.102000
     14 C8          -3.7380    -0.7480    -0.2680 ca         1 5WN      -0.069000
     15 C9           0.8940     0.8080     0.8290 c3         1 5WN       0.275000
     16 H1           2.7430    -1.6470     1.6790 hn         1 5WN       0.475000
     17 H2           2.4510    -2.4620     0.2350 hn         1 5WN       0.475000
     18 H3           1.0970    -0.1080    -1.0580 hn         1 5WN       0.486000
     19 H5          -0.1420    -1.9000     0.7020 ha         1 5WN       0.096000
     20 H6          -1.9180    -3.5510     0.3150 ha         1 5WN       0.117000
     21 H7          -4.1980    -2.8310    -0.2970 ha         1 5WN       0.119000
     22 H8          -4.7390    -0.4330    -0.5330 ha         1 5WN       0.126000
     23 H9           0.9990     0.1000     1.6610 h1         1 5WN       0.055200
     24 H10          1.2820     1.7670     1.1670 h1         1 5WN       0.055200
     25 H4          -0.7740     3.0920     0.3400 h4         1 5WN       0.226000
@<TRIPOS>BOND
     1     1     2 2   
     2     1     3 2   
     3     1     4 1   
     4     1     5 1   
     5     4    16 1   
     6     4    17 1   
     7     5    15 1   
     8     5    18 1   
     9     6     7 1   
    10     6    10 1   
    11     7     8 2   
    12     7    25 1   
    13     8     9 1   
    14     8    15 1   
    15     9    10 ar  
    16     9    11 ar  
    17    10    14 ar  
    18    11    12 ar  
    19    11    19 1   
    20    12    13 ar  
    21    12    20 1   
    22    13    14 ar  
    23    13    21 1   
    24    14    22 1   
    25    15    23 1   
    26    15    24 1   
@<TRIPOS>SUBSTRUCTURE
     1 5WN         1 TEMP              0 ****  ****    0 ROOT
