@<TRIPOS>MOLECULE
5WQ
  122   125     1     0     0
SMALL
abcg2


@<TRIPOS>ATOM
      1 CBC         -2.0660     2.9200     3.6010 c6         1 5WQ       0.105800
      2 CBA         -3.5190     3.3190     3.8360 c6         1 5WQ       0.162800
      3 NCE         -4.3670     2.2200     4.2630 n3         1 5WQ      -0.714600
      4 CAK         -4.1680     1.8330     5.6450 c3         1 5WQ       0.152100
      5 CBB         -4.2360     1.1220     3.3250 c6         1 5WQ       0.162800
      6 CBD         -2.7930     0.6920     3.0780 c6         1 5WQ       0.105800
      7 NCF         -2.0020     1.8320     2.6450 n3         1 5WQ      -0.484400
      8 NBE         -0.6580     1.5200     2.3870 n7         1 5WQ      -0.612200
      9 CAW         -0.4900     0.7040     1.1960 c3         1 5WQ       0.195100
     10 CBO          0.8740     0.9060     0.6030 ca         1 5WQ      -0.002300
     11 CAX          1.8630    -0.0060     0.8400 ca         1 5WQ      -0.132000
     12 CBU          3.1410     0.0780     0.2360 ca         1 5WQ       0.058000
     13 CBT          4.1450    -0.9120     0.4530 ca         1 5WQ      -0.198300
     14 CBM          3.8270    -2.0050     1.4550 c3         1 5WQ       0.459600
     15 OAM          4.9310    -2.7400     1.8310 oh         1 5WQ      -0.648000
     16 OBG          2.7860    -2.8580     0.9780 os         1 5WQ      -0.403100
     17 CAS          2.8720    -3.3110    -0.2930 c2         1 5WQ       0.021100
     18 CAV          1.7910    -3.5230    -1.0370 c2         1 5WQ      -0.336200
     19 CCA          0.3840    -3.2010    -0.6080 c3         1 5WQ       0.230500
     20 OAZ          0.0090    -1.8670    -0.9080 os         1 5WQ      -0.457000
     21 CAC          0.4850    -1.3260    -2.1110 c3         1 5WQ       0.150900
     22 CBY         -0.6200    -4.2260    -1.1700 c3         1 5WQ      -0.092700
     23 CAI         -0.2790    -5.6180    -0.6410 c3         1 5WQ      -0.088100
     24 CCD         -2.0840    -3.8700    -0.8560 c3         1 5WQ       0.191300
     25 OBI         -2.1470    -3.3610     0.4800 os         1 5WQ      -0.447100
     26 CBJ         -2.9280    -3.9360     1.3850 c          1 5WQ       0.606100
     27 CAD         -3.0140    -3.1020     2.6300 c3         1 5WQ      -0.157100
     28 OAA         -3.5020    -4.9860     1.2330 o          1 5WQ      -0.487000
     29 CBZ         -2.7010    -2.8800    -1.8750 c3         1 5WQ      -0.059700
     30 CAJ         -3.3810    -3.7010    -2.9690 c3         1 5WQ      -0.092100
     31 CCC         -3.5690    -1.8000    -1.2260 c3         1 5WQ       0.196300
     32 OAQ         -4.6560    -2.4010    -0.5610 oh         1 5WQ      -0.655000
     33 CBX         -4.0080    -0.7190    -2.2380 c3         1 5WQ      -0.201700
     34 CAH         -5.3410    -0.9960    -2.9510 c3         1 5WQ      -0.080100
     35 CCB         -4.1730     0.6300    -1.5570 c          1 5WQ       0.578100
     36 OAP         -4.5400     0.6850    -0.4040 o          1 5WQ      -0.528100
     37 CBW         -3.9940     1.8920    -2.3950 c3         1 5WQ      -0.121500
     38 CAG         -2.9730     1.7560    -3.5330 c3         1 5WQ      -0.083100
     39 CAU         -3.6740     3.1470    -1.6250 c2         1 5WQ      -0.225200
     40 CAR         -2.9800     3.2650    -0.4970 c2         1 5WQ      -0.200200
     41 CAT         -2.5690     4.5810     0.0900 c3         1 5WQ      -0.034200
     42 CBK         -1.1430     5.0420    -0.2910 c3         1 5WQ      -0.142700
     43 CAE         -1.0250     5.3300    -1.7860 c3         1 5WQ      -0.092100
     44 CBL         -0.0520     4.1070     0.2090 c          1 5WQ       0.612100
     45 OAL          0.6340     4.3620     1.1790 o          1 5WQ      -0.559100
     46 NBF          0.1520     2.9840    -0.5410 ns         1 5WQ      -0.188000
     47 CBR          1.1340     2.0100    -0.2330 ca         1 5WQ      -0.132000
     48 CBQ          2.3670     2.1330    -0.8290 ca         1 5WQ       0.157100
     49 OAO          2.6300     3.1760    -1.6450 oh         1 5WQ      -0.568100
     50 CBV          3.3940     1.1700    -0.6370 ca         1 5WQ      -0.135000
     51 CBP          4.6390     1.2270    -1.3300 ca         1 5WQ       0.205100
     52 OAN          4.9580     2.2240    -2.1700 oh         1 5WQ      -0.537100
     53 CBN          5.5730     0.2250    -1.1840 ca         1 5WQ      -0.182300
     54 CAF          6.8280     0.2560    -2.0110 c3         1 5WQ      -0.027800
     55 CBS          5.3140    -0.8320    -0.2780 ca         1 5WQ       0.211100
     56 OBH          6.2510    -1.8080    -0.1910 os         1 5WQ      -0.366100
     57 CAY          7.3770    -1.5110     0.6340 c3         1 5WQ       0.178600
     58 CAB          8.3000    -2.7040     0.6240 c3         1 5WQ      -0.093100
     59 H1          -1.5060     3.7660     3.2000 h1         1 5WQ       0.042950
     60 H2          -1.5920     2.6440     4.5600 h1         1 5WQ       0.042950
     61 H3          -3.5650     4.1230     4.5740 h1         1 5WQ       0.061450
     62 H4          -3.9250     3.7170     2.8990 h1         1 5WQ       0.061450
     63 H6          -4.3640     2.6880     6.2940 h1         1 5WQ       0.029367
     64 H7          -4.8800     1.0490     5.9080 h1         1 5WQ       0.029367
     65 H8          -3.1650     1.4590     5.8890 h1         1 5WQ       0.029367
     66 H9          -4.8180     0.2680     3.6800 h1         1 5WQ       0.061450
     67 H10         -4.6650     1.4320     2.3670 h1         1 5WQ       0.061450
     68 H11         -2.3600     0.2200     3.9780 h1         1 5WQ       0.042950
     69 H12         -2.7900    -0.0630     2.2880 h1         1 5WQ       0.042950
     70 H13         -0.2510     1.0260     3.1840 hn         1 5WQ       0.384000
     71 H14         -0.6420    -0.3680     1.3660 h1         1 5WQ       0.054200
     72 H15         -1.2510     1.0100     0.4810 h1         1 5WQ       0.054200
     73 H16          1.6030    -0.8510     1.4580 ha         1 5WQ       0.131000
     74 H17          3.3710    -1.5410     2.3360 h2         1 5WQ       0.061700
     75 H18          4.7250    -3.1800     2.6630 ho         1 5WQ       0.456000
     76 H19          3.8670    -3.5320    -0.6720 h4         1 5WQ       0.191000
     77 H20          1.9530    -3.9300    -2.0290 ha         1 5WQ       0.182000
     78 H21          0.3300    -3.2610     0.4820 h1         1 5WQ       0.083700
     79 H22          1.5460    -1.0630    -2.0600 h1         1 5WQ       0.022700
     80 H23          0.3390    -1.9880    -2.9740 h1         1 5WQ       0.022700
     81 H24         -0.0770    -0.4100    -2.2990 h1         1 5WQ       0.022700
     82 H25         -0.5290    -4.2520    -2.2640 hc         1 5WQ       0.050700
     83 H26         -0.3810    -5.6680     0.4450 hc         1 5WQ       0.040033
     84 H27         -0.9420    -6.3690    -1.0720 hc         1 5WQ       0.040033
     85 H28          0.7440    -5.9040    -0.8860 hc         1 5WQ       0.040033
     86 H29         -2.6730    -4.7880    -0.8920 h1         1 5WQ       0.073700
     87 H30         -3.2780    -3.7160     3.4870 hc         1 5WQ       0.064700
     88 H31         -2.0870    -2.5690     2.8310 hc         1 5WQ       0.064700
     89 H32         -3.8030    -2.3590     2.4940 hc         1 5WQ       0.064700
     90 H33         -1.8900    -2.3300    -2.3510 hc         1 5WQ       0.056700
     91 H34         -4.3090    -4.1570    -2.6230 hc         1 5WQ       0.038700
     92 H35         -3.5990    -3.1030    -3.8530 hc         1 5WQ       0.038700
     93 H36         -2.7240    -4.5090    -3.2980 hc         1 5WQ       0.038700
     94 H37         -2.9120    -1.3030    -0.5030 h1         1 5WQ       0.052700
     95 H38         -5.0980    -1.7140    -0.0500 ho         1 5WQ       0.453000
     96 H39         -3.2280    -0.6450    -2.9990 hc         1 5WQ       0.069700
     97 H40         -6.1820    -0.9670    -2.2590 hc         1 5WQ       0.043367
     98 H41         -5.5240    -0.2510    -3.7260 hc         1 5WQ       0.043367
     99 H42         -5.3440    -1.9710    -3.4320 hc         1 5WQ       0.043367
    100 H43         -4.9740     2.0390    -2.8690 hc         1 5WQ       0.074700
    101 H44         -3.2830     1.0460    -4.2980 hc         1 5WQ       0.038367
    102 H45         -2.8420     2.7190    -4.0270 hc         1 5WQ       0.038367
    103 H46         -1.9960     1.4470    -3.1540 hc         1 5WQ       0.038367
    104 H47         -3.9800     4.0580    -2.1370 ha         1 5WQ       0.165000
    105 H48         -2.6810     2.3890     0.0640 ha         1 5WQ       0.200000
    106 H49         -3.2490     5.3690    -0.2440 hc         1 5WQ       0.057200
    107 H50         -2.6460     4.5350     1.1780 hc         1 5WQ       0.057200
    108 H51         -0.9690     5.9780     0.2450 hc         1 5WQ       0.080700
    109 H52         -1.7020     6.1400    -2.0580 hc         1 5WQ       0.037700
    110 H53         -0.0150     5.6370    -2.0620 hc         1 5WQ       0.037700
    111 H54         -1.2990     4.4720    -2.4020 hc         1 5WQ       0.037700
    112 H55         -0.4950     2.7950    -1.2940 hn         1 5WQ       0.153000
    113 H56          1.8250     3.6890    -1.8020 ho         1 5WQ       0.491000
    114 H57          4.2140     2.8410    -2.2630 ho         1 5WQ       0.497000
    115 H58          6.6230     0.5920    -3.0270 hc         1 5WQ       0.044700
    116 H59          7.5750     0.9360    -1.5950 hc         1 5WQ       0.044700
    117 H60          7.2850    -0.7280    -2.0810 hc         1 5WQ       0.044700
    118 H61          7.8980    -0.6240     0.2590 h1         1 5WQ       0.032200
    119 H62          7.0440    -1.2900     1.6510 h1         1 5WQ       0.032200
    120 H63          8.6520    -2.9290    -0.3840 hc         1 5WQ       0.044700
    121 H64          9.1720    -2.4960     1.2430 hc         1 5WQ       0.044700
    122 H65          7.8040    -3.5880     1.0250 hc         1 5WQ       0.044700
@<TRIPOS>BOND
     1     1     2 1   
     2     1     7 1   
     3     1    59 1   
     4     1    60 1   
     5     2     3 1   
     6     2    61 1   
     7     2    62 1   
     8     3     4 1   
     9     3     5 1   
    10     4    63 1   
    11     4    64 1   
    12     4    65 1   
    13     5     6 1   
    14     5    66 1   
    15     5    67 1   
    16     6     7 1   
    17     6    68 1   
    18     6    69 1   
    19     7     8 1   
    20     8     9 1   
    21     8    70 1   
    22     9    10 1   
    23     9    71 1   
    24     9    72 1   
    25    10    11 ar  
    26    10    47 ar  
    27    11    12 ar  
    28    11    73 1   
    29    12    13 ar  
    30    12    50 ar  
    31    13    14 1   
    32    13    55 ar  
    33    14    15 1   
    34    14    16 1   
    35    14    74 1   
    36    15    75 1   
    37    16    17 1   
    38    17    18 2   
    39    17    76 1   
    40    18    19 1   
    41    18    77 1   
    42    19    20 1   
    43    19    22 1   
    44    19    78 1   
    45    20    21 1   
    46    21    79 1   
    47    21    80 1   
    48    21    81 1   
    49    22    23 1   
    50    22    24 1   
    51    22    82 1   
    52    23    83 1   
    53    23    84 1   
    54    23    85 1   
    55    24    25 1   
    56    24    29 1   
    57    24    86 1   
    58    25    26 1   
    59    26    27 1   
    60    26    28 2   
    61    27    87 1   
    62    27    88 1   
    63    27    89 1   
    64    29    30 1   
    65    29    31 1   
    66    29    90 1   
    67    30    91 1   
    68    30    92 1   
    69    30    93 1   
    70    31    32 1   
    71    31    33 1   
    72    31    94 1   
    73    32    95 1   
    74    33    34 1   
    75    33    35 1   
    76    33    96 1   
    77    34    97 1   
    78    34    98 1   
    79    34    99 1   
    80    35    36 2   
    81    35    37 1   
    82    37    38 1   
    83    37    39 1   
    84    37   100 1   
    85    38   101 1   
    86    38   102 1   
    87    38   103 1   
    88    39    40 2   
    89    39   104 1   
    90    40    41 1   
    91    40   105 1   
    92    41    42 1   
    93    41   106 1   
    94    41   107 1   
    95    42    43 1   
    96    42    44 1   
    97    42   108 1   
    98    43   109 1   
    99    43   110 1   
   100    43   111 1   
   101    44    45 2   
   102    44    46 1   
   103    46    47 1   
   104    46   112 1   
   105    47    48 ar  
   106    48    49 1   
   107    48    50 ar  
   108    49   113 1   
   109    50    51 ar  
   110    51    52 1   
   111    51    53 ar  
   112    52   114 1   
   113    53    54 1   
   114    53    55 ar  
   115    54   115 1   
   116    54   116 1   
   117    54   117 1   
   118    55    56 1   
   119    56    57 1   
   120    57    58 1   
   121    57   118 1   
   122    57   119 1   
   123    58   120 1   
   124    58   121 1   
   125    58   122 1   
@<TRIPOS>SUBSTRUCTURE
     1 5WQ         1 TEMP              0 ****  ****    0 ROOT
