@<TRIPOS>MOLECULE
5WQ
  122   125     1     0     0
SMALL
No Charge or Current Charge


@<TRIPOS>ATOM
      1 CBC         -2.4030     3.4610     3.5210 c6         1 5WQ       0.105800
      2 CBA         -3.9080     3.5690     3.9280 c6         1 5WQ       0.162800
      3 NCE         -4.3040     2.5540     4.9570 n3         1 5WQ      -0.714600
      4 CAK         -3.7620     2.8440     6.3060 c3         1 5WQ       0.152100
      5 CBB         -3.9630     1.1810     4.4640 c6         1 5WQ       0.162800
      6 CBD         -2.4600     1.0360     4.0630 c6         1 5WQ       0.105800
      7 NCF         -2.0540     2.0800     3.0760 n3         1 5WQ      -0.484400
      8 NBE         -0.7240     1.9480     2.5670 n7         1 5WQ      -0.612200
      9 CAW         -0.6190     1.1090     1.3540 c3         1 5WQ       0.195100
     10 CBO          0.7380     1.2400     0.6680 ca         1 5WQ      -0.002300
     11 CAX          1.7100     0.2710     0.9440 ca         1 5WQ      -0.132000
     12 CBU          2.9520     0.2300     0.2660 ca         1 5WQ       0.058000
     13 CBT          3.9020    -0.7980     0.5510 ca         1 5WQ      -0.198300
     14 CBM          3.5560    -1.8440     1.6460 c3         1 5WQ       0.459600
     15 OAM          4.6410    -2.5840     2.1810 oh         1 5WQ      -0.648000
     16 OBG          2.5770    -2.7540     1.1270 os         1 5WQ      -0.403100
     17 CAS          2.8540    -3.4540    -0.0170 c2         1 5WQ       0.021100
     18 CAV          1.8990    -3.7190    -0.9200 c2         1 5WQ      -0.336200
     19 CCA          0.4440    -3.2730    -0.8350 c3         1 5WQ       0.230500
     20 OAZ          0.3590    -1.9260    -1.3600 os         1 5WQ      -0.457000
     21 CAC          1.0200    -1.6410    -2.6110 c3         1 5WQ       0.150900
     22 CBY         -0.5730    -4.2280    -1.5620 c3         1 5WQ      -0.092700
     23 CAI         -0.3150    -5.7080    -1.1630 c3         1 5WQ      -0.088100
     24 CCD         -2.0930    -3.8660    -1.3380 c3         1 5WQ       0.191300
     25 OBI         -2.2930    -3.6660     0.0800 os         1 5WQ      -0.447100
     26 CBJ         -2.7850    -4.6850     0.8530 c          1 5WQ       0.606100
     27 CAD         -2.8700    -4.2730     2.3160 c3         1 5WQ      -0.157100
     28 OAA         -3.1270    -5.7840     0.4400 o          1 5WQ      -0.487000
     29 CBZ         -2.6560    -2.5960    -2.0650 c3         1 5WQ      -0.059700
     30 CAJ         -2.4830    -2.6880    -3.6110 c3         1 5WQ      -0.092100
     31 CCC         -4.1450    -2.2960    -1.6590 c3         1 5WQ       0.196300
     32 OAQ         -4.9990    -3.2980    -2.2240 oh         1 5WQ      -0.655000
     33 CBX         -4.6770    -0.8850    -2.0630 c3         1 5WQ      -0.201700
     34 CAH         -6.1500    -0.6370    -1.6370 c3         1 5WQ      -0.080100
     35 CCB         -3.7860     0.2200    -1.4530 c          1 5WQ       0.578100
     36 OAP         -3.5360     0.2110    -0.2540 o          1 5WQ      -0.528100
     37 CBW         -3.1870     1.2880    -2.4180 c3         1 5WQ      -0.121500
     38 CAG         -1.7160     0.9540    -2.7510 c3         1 5WQ      -0.083100
     39 CAU         -3.2850     2.7490    -1.9780 c2         1 5WQ      -0.225200
     40 CAR         -3.0970     3.2380    -0.7400 c2         1 5WQ      -0.200200
     41 CAT         -2.9160     4.6990    -0.3920 c3         1 5WQ      -0.034200
     42 CBK         -1.4690     5.2180    -0.6480 c3         1 5WQ      -0.142700
     43 CAE         -1.1690     5.4290    -2.1570 c3         1 5WQ      -0.092100
     44 CBL         -0.3800     4.3670     0.0600 c          1 5WQ       0.612100
     45 OAL          0.1950     4.7650     1.0660 o          1 5WQ      -0.559100
     46 NBF          0.0100     3.2140    -0.6170 ns         1 5WQ      -0.188000
     47 CBR          1.0050     2.2440    -0.2850 ca         1 5WQ      -0.132000
     48 CBQ          2.2350     2.2280    -0.9760 ca         1 5WQ       0.157100
     49 OAO          2.4460     3.2050    -1.9150 oh         1 5WQ      -0.568100
     50 CBV          3.2130     1.2150    -0.7240 ca         1 5WQ      -0.135000
     51 CBP          4.4270     1.1390    -1.4520 ca         1 5WQ       0.205100
     52 OAN          4.7120     2.0670    -2.4090 oh         1 5WQ      -0.537100
     53 CBN          5.3500     0.1010    -1.2320 ca         1 5WQ      -0.182300
     54 CAF          6.6100     0.0050    -2.1110 c3         1 5WQ      -0.027800
     55 CBS          5.0960    -0.8500    -0.2190 ca         1 5WQ       0.211100
     56 OBH          6.0160    -1.8550    -0.0310 os         1 5WQ      -0.366100
     57 CAY          7.2250    -1.5770     0.6960 c3         1 5WQ       0.178600
     58 CAB          8.0540    -2.8710     0.7350 c3         1 5WQ      -0.093100
     59 H1          -2.2020     4.1820     2.7170 h1         1 5WQ       0.042950
     60 H2          -1.7760     3.7530     4.3760 h1         1 5WQ       0.042950
     61 H3          -4.1110     4.5880     4.2880 h1         1 5WQ       0.061450
     62 H4          -4.5150     3.4320     3.0200 h1         1 5WQ       0.061450
     63 H6          -4.0850     3.8380     6.6450 h1         1 5WQ       0.029367
     64 H7          -4.1260     2.1070     7.0340 h1         1 5WQ       0.029367
     65 H8          -2.6650     2.8200     6.3150 h1         1 5WQ       0.029367
     66 H9          -4.2080     0.4230     5.2230 h1         1 5WQ       0.061450
     67 H10         -4.5740     0.9440     3.5790 h1         1 5WQ       0.061450
     68 H11         -1.8370     1.1050     4.9670 h1         1 5WQ       0.042950
     69 H12         -2.3050     0.0320     3.6420 h1         1 5WQ       0.042950
     70 H13          0.0010     1.7120     3.2570 hn         1 5WQ       0.384000
     71 H14         -0.7950     0.0550     1.6090 h1         1 5WQ       0.054200
     72 H15         -1.3910     1.3740     0.6290 h1         1 5WQ       0.054200
     73 H16          1.4390    -0.4830     1.6730 ha         1 5WQ       0.131000
     74 H17          3.1280    -1.3070     2.5020 h2         1 5WQ       0.061700
     75 H18          4.2210    -3.3010     2.6980 ho         1 5WQ       0.456000
     76 H19          3.9000    -3.7470    -0.1440 h4         1 5WQ       0.191000
     77 H20          2.1580    -4.2570    -1.8310 ha         1 5WQ       0.182000
     78 H21          0.1660    -3.2560     0.2280 h1         1 5WQ       0.083700
     79 H22          2.1110    -1.6530    -2.4910 h1         1 5WQ       0.022700
     80 H23          0.7490    -2.3660    -3.3870 h1         1 5WQ       0.022700
     81 H24          0.7420    -0.6410    -2.9650 h1         1 5WQ       0.022700
     82 H25         -0.3680    -4.1880    -2.6360 hc         1 5WQ       0.050700
     83 H26         -0.3370    -5.8340    -0.0740 hc         1 5WQ       0.040033
     84 H27         -1.0730    -6.3690    -1.6010 hc         1 5WQ       0.040033
     85 H28          0.6600    -6.0550    -1.5220 hc         1 5WQ       0.040033
     86 H29         -2.7000    -4.7040    -1.7080 h1         1 5WQ       0.073700
     87 H30         -3.2720    -5.0660     2.9560 hc         1 5WQ       0.064700
     88 H31         -1.8790    -3.9440     2.6460 hc         1 5WQ       0.064700
     89 H32         -3.4570    -3.3510     2.3890 hc         1 5WQ       0.064700
     90 H33         -2.0610    -1.7490    -1.7170 hc         1 5WQ       0.056700
     91 H34         -2.9370    -3.6060    -4.0020 hc         1 5WQ       0.038700
     92 H35         -2.9470    -1.8400    -4.1240 hc         1 5WQ       0.038700
     93 H36         -1.4280    -2.6870    -3.8980 hc         1 5WQ       0.038700
     94 H37         -4.2160    -2.3460    -0.5630 h1         1 5WQ       0.052700
     95 H38         -5.9030    -3.1300    -1.8840 ho         1 5WQ       0.453000
     96 H39         -4.6610    -0.7890    -3.1530 hc         1 5WQ       0.069700
     97 H40         -6.2760    -0.7790    -0.5560 hc         1 5WQ       0.043367
     98 H41         -6.4500     0.3900    -1.8800 hc         1 5WQ       0.043367
     99 H42         -6.8390    -1.3120    -2.1580 hc         1 5WQ       0.043367
    100 H43         -3.7260     1.1910    -3.3680 hc         1 5WQ       0.074700
    101 H44         -1.6420     0.0090    -3.2970 hc         1 5WQ       0.038367
    102 H45         -1.2720     1.7340    -3.3810 hc         1 5WQ       0.038367
    103 H46         -1.1180     0.8680    -1.8370 hc         1 5WQ       0.038367
    104 H47         -3.3900     3.4440    -2.8140 ha         1 5WQ       0.165000
    105 H48         -2.9770     2.5820     0.1190 ha         1 5WQ       0.200000
    106 H49         -3.6240     5.3120    -0.9630 hc         1 5WQ       0.057200
    107 H50         -3.1730     4.8560     0.6630 hc         1 5WQ       0.057200
    108 H51         -1.4250     6.2080    -0.1770 hc         1 5WQ       0.080700
    109 H52         -1.9110     6.0990    -2.6080 hc         1 5WQ       0.037700
    110 H53         -0.1810     5.8870    -2.2900 hc         1 5WQ       0.037700
    111 H54         -1.1840     4.4850    -2.7140 hc         1 5WQ       0.037700
    112 H55         -0.5310     3.0060    -1.4470 hn         1 5WQ       0.153000
    113 H56          1.6770     3.8130    -1.8950 ho         1 5WQ       0.491000
    114 H57          3.9270     2.6730    -2.4100 ho         1 5WQ       0.497000
    115 H58          6.4030     0.2830    -3.1510 hc         1 5WQ       0.044700
    116 H59          7.3970     0.6720    -1.7400 hc         1 5WQ       0.044700
    117 H60          7.0210    -1.0100    -2.1520 hc         1 5WQ       0.044700
    118 H61          7.8090    -0.7850     0.2110 h1         1 5WQ       0.032200
    119 H62          6.9970    -1.2540     1.7200 h1         1 5WQ       0.032200
    120 H63          8.3060    -3.1970    -0.2810 hc         1 5WQ       0.044700
    121 H64          8.9870    -2.7070     1.2870 hc         1 5WQ       0.044700
    122 H65          7.4950    -3.6720     1.2330 hc         1 5WQ       0.044700
@<TRIPOS>BOND
     1     1     2 1   
     2     1     7 1   
     3     1    59 1   
     4     1    60 1   
     5     2     3 1   
     6     2    61 1   
     7     2    62 1   
     8     3     4 1   
     9     3     5 1   
    10     4    63 1   
    11     4    64 1   
    12     4    65 1   
    13     5     6 1   
    14     5    66 1   
    15     5    67 1   
    16     6     7 1   
    17     6    68 1   
    18     6    69 1   
    19     7     8 1   
    20     8     9 1   
    21     8    70 1   
    22     9    10 1   
    23     9    71 1   
    24     9    72 1   
    25    10    11 ar  
    26    10    47 ar  
    27    11    12 ar  
    28    11    73 1   
    29    12    13 ar  
    30    12    50 ar  
    31    13    14 1   
    32    13    55 ar  
    33    14    15 1   
    34    14    16 1   
    35    14    74 1   
    36    15    75 1   
    37    16    17 1   
    38    17    18 2   
    39    17    76 1   
    40    18    19 1   
    41    18    77 1   
    42    19    20 1   
    43    19    22 1   
    44    19    78 1   
    45    20    21 1   
    46    21    79 1   
    47    21    80 1   
    48    21    81 1   
    49    22    23 1   
    50    22    24 1   
    51    22    82 1   
    52    23    83 1   
    53    23    84 1   
    54    23    85 1   
    55    24    25 1   
    56    24    29 1   
    57    24    86 1   
    58    25    26 1   
    59    26    27 1   
    60    26    28 2   
    61    27    87 1   
    62    27    88 1   
    63    27    89 1   
    64    29    30 1   
    65    29    31 1   
    66    29    90 1   
    67    30    91 1   
    68    30    92 1   
    69    30    93 1   
    70    31    32 1   
    71    31    33 1   
    72    31    94 1   
    73    32    95 1   
    74    33    34 1   
    75    33    35 1   
    76    33    96 1   
    77    34    97 1   
    78    34    98 1   
    79    34    99 1   
    80    35    36 2   
    81    35    37 1   
    82    37    38 1   
    83    37    39 1   
    84    37   100 1   
    85    38   101 1   
    86    38   102 1   
    87    38   103 1   
    88    39    40 2   
    89    39   104 1   
    90    40    41 1   
    91    40   105 1   
    92    41    42 1   
    93    41   106 1   
    94    41   107 1   
    95    42    43 1   
    96    42    44 1   
    97    42   108 1   
    98    43   109 1   
    99    43   110 1   
   100    43   111 1   
   101    44    45 2   
   102    44    46 1   
   103    46    47 1   
   104    46   112 1   
   105    47    48 ar  
   106    48    49 1   
   107    48    50 ar  
   108    49   113 1   
   109    50    51 ar  
   110    51    52 1   
   111    51    53 ar  
   112    52   114 1   
   113    53    54 1   
   114    53    55 ar  
   115    54   115 1   
   116    54   116 1   
   117    54   117 1   
   118    55    56 1   
   119    56    57 1   
   120    57    58 1   
   121    57   118 1   
   122    57   119 1   
   123    58   120 1   
   124    58   121 1   
   125    58   122 1   
@<TRIPOS>SUBSTRUCTURE
     1 5WQ         1 TEMP              0 ****  ****    0 ROOT
