@<TRIPOS>MOLECULE
5WR
   69    73     1     0     0
SMALL
abcg2


@<TRIPOS>ATOM
      1 CAA         -6.9700     9.1450   -47.5560 ca         1 5WR       0.022400
      2 CAC         -6.9700    11.1320   -48.6690 ca         1 5WR       0.055900
      3 CAE         -4.9450    10.2280   -48.1510 ca         1 5WR       0.022400
      4 CAF         -5.5590     9.1190   -47.5300 ca         1 5WR       0.246000
      5 CAH         -5.5220     7.0830   -46.1700 c6         1 5WR       0.280100
      6 CAI         -4.5920     6.4010   -45.2060 ca         1 5WR      -0.107300
      7 CAJ         -3.2840     6.1170   -45.6140 ca         1 5WR      -0.040300
      8 CAK         -2.8990     6.5680   -47.0000 c6         1 5WR      -0.037400
      9 CAL         -3.4100     7.9960   -47.2160 c6         1 5WR       0.236800
     10 CAM         -5.0240     6.0300   -43.9410 ca         1 5WR      -0.040000
     11 CAN         -4.1740     5.3480   -43.0680 ca         1 5WR      -0.154600
     12 CAO         -2.8670     5.0760   -43.4730 ca         1 5WR      -0.080000
     13 CAP         -2.4270     5.4670   -44.7310 ca         1 5WR      -0.110000
     14 CAQ         -4.7030     4.9770   -41.7200 c          1 5WR       0.620700
     15 CAS         -4.3370     3.3180   -39.8880 ca         1 5WR      -0.023000
     16 CAT         -5.0820     3.9350   -38.8820 ca         1 5WR      -0.081000
     17 CAU         -5.2520     3.2690   -37.6720 ca         1 5WR      -0.161300
     18 CAV         -4.6960     2.0180   -37.4420 ca         1 5WR      -0.081000
     19 CAW         -3.9350     1.4070   -38.4390 ca         1 5WR      -0.097300
     20 CAX         -3.7680     2.0620   -39.6510 ca         1 5WR      -0.132000
     21 CAY         -6.0040     3.9560   -36.5700 c3         1 5WR       0.343300
     22 CAZ         -3.2550     0.0760   -38.1840 c3         1 5WR       0.222100
     23 NAB         -7.6580    10.1370   -48.1130 nb         1 5WR      -0.137500
     24 NAD         -5.6410    11.2140   -48.7100 nb         1 5WR      -0.137500
     25 NAG         -4.8420     8.1120   -46.9560 nh         1 5WR      -0.832400
     26 NAR         -4.0970     3.8980   -41.1410 ns         1 5WR      -0.146000
     27 CBB         -0.9310     0.8490   -38.3360 c6         1 5WR       0.168800
     28 CBC          0.4340     0.6990   -37.6860 c6         1 5WR       0.162800
     29 CBE         -0.6020     0.5180   -35.5350 c6         1 5WR       0.162800
     30 CBF         -1.9700     0.6720   -36.1780 c6         1 5WR       0.168800
     31 CBI         -1.4100     6.4890   -47.3170 c3         1 5WR      -0.086100
     32 NBA         -1.9420     0.1580   -37.5420 n3         1 5WR      -0.734600
     33 NBD          0.4150     1.2110   -36.3200 n3         1 5WR      -0.719600
     34 OBH         -5.6220     5.5970   -41.1930 o          1 5WR      -0.571100
     35 F01         -6.5380     3.0900   -35.6830 f          1 5WR      -0.111667
     36 F02         -5.2000     4.7850   -35.8520 f          1 5WR      -0.111667
     37 F03         -7.0180     4.7220   -37.0280 f          1 5WR      -0.111667
     38 H1          -7.5510     8.3400   -47.1260 h4         1 5WR       0.021100
     39 H2          -7.5340    11.9380   -49.1240 h5         1 5WR       0.052100
     40 H3          -3.8680    10.3210   -48.1820 h4         1 5WR       0.021100
     41 H4          -6.3350     7.5430   -45.6090 h1         1 5WR       0.055700
     42 H5          -5.9760     6.3330   -46.8340 h1         1 5WR       0.055700
     43 H6          -3.4360     5.9270   -47.7110 hc         1 5WR       0.069700
     44 H7          -2.8390     8.6810   -46.5760 h1         1 5WR       0.049700
     45 H8          -3.2160     8.2780   -48.2530 h1         1 5WR       0.049700
     46 H9          -6.0320     6.2620   -43.6210 ha         1 5WR       0.140000
     47 H10         -2.1670     4.5920   -42.8040 ha         1 5WR       0.115000
     48 H11         -1.4050     5.2610   -45.0170 ha         1 5WR       0.122000
     49 H12         -5.5220     4.9030   -39.0500 ha         1 5WR       0.165000
     50 H13         -4.8540     1.5150   -36.4980 ha         1 5WR       0.132000
     51 H14         -3.1900     1.5910   -40.4370 ha         1 5WR       0.112000
     52 H15         -3.8940    -0.5380   -37.5460 h1         1 5WR       0.061200
     53 H16         -3.1260    -0.4480   -39.1330 h1         1 5WR       0.061200
     54 H17         -3.4470     3.3890   -41.7190 hn         1 5WR       0.153000
     55 H19         -0.9120     0.4100   -39.3370 h1         1 5WR       0.039950
     56 H20          0.7290    -0.3660   -37.7030 h1         1 5WR       0.038950
     57 H21          1.1760     1.2580   -38.2610 h1         1 5WR       0.038950
     58 H22         -0.6210     0.9450   -34.5300 h1         1 5WR       0.038950
     59 H23         -0.3630    -0.5560   -35.4400 h1         1 5WR       0.038950
     60 H24         -2.2570     1.7350   -36.1450 h1         1 5WR       0.039950
     61 H25         -2.7120     0.1110   -35.6060 h1         1 5WR       0.039950
     62 H26          1.6850     1.5490   -34.6920 h1         1 5WR       0.031700
     63 H27          2.0780     0.0790   -35.6090 h1         1 5WR       0.031700
     64 H28          2.4540     1.6790   -36.2840 h1         1 5WR       0.031700
     65 H29         -1.0450     5.4640   -47.2510 hc         1 5WR       0.043367
     66 H30         -1.2240     6.8470   -48.3310 hc         1 5WR       0.043367
     67 H31         -0.8270     7.1040   -46.6270 hc         1 5WR       0.043367
     68 H18         -1.1580     1.9210   -38.4460 h1         1 5WR       0.039950
     69 CBG          1.7240     1.1200   -35.6950 c3         1 5WR       0.152100
@<TRIPOS>BOND
     1     1     4 ar  
     2     1    23 ar  
     3     1    38 1   
     4     2    23 ar  
     5     2    24 ar  
     6     2    39 1   
     7     3     4 ar  
     8     3    24 ar  
     9     3    40 1   
    10     4    25 1   
    11     5     6 1   
    12     5    25 1   
    13     5    41 1   
    14     5    42 1   
    15     6     7 ar  
    16     6    10 ar  
    17     7     8 1   
    18     7    13 ar  
    19     8     9 1   
    20     8    31 1   
    21     8    43 1   
    22     9    25 1   
    23     9    44 1   
    24     9    45 1   
    25    10    11 ar  
    26    10    46 1   
    27    11    12 ar  
    28    11    14 1   
    29    12    13 ar  
    30    12    47 1   
    31    13    48 1   
    32    14    26 1   
    33    14    34 2   
    34    15    16 ar  
    35    15    20 ar  
    36    15    26 1   
    37    16    17 ar  
    38    16    49 1   
    39    17    18 ar  
    40    17    21 1   
    41    18    19 ar  
    42    18    50 1   
    43    19    20 ar  
    44    19    22 1   
    45    20    51 1   
    46    21    35 1   
    47    21    36 1   
    48    21    37 1   
    49    22    32 1   
    50    22    52 1   
    51    22    53 1   
    52    26    54 1   
    53    27    28 1   
    54    27    32 1   
    55    27    55 1   
    56    27    68 1   
    57    28    33 1   
    58    28    56 1   
    59    28    57 1   
    60    29    30 1   
    61    29    33 1   
    62    29    58 1   
    63    29    59 1   
    64    30    32 1   
    65    30    60 1   
    66    30    61 1   
    67    31    65 1   
    68    31    66 1   
    69    31    67 1   
    70    33    69 1   
    71    62    69 1   
    72    63    69 1   
    73    64    69 1   
@<TRIPOS>SUBSTRUCTURE
     1 5WR         1 TEMP              0 ****  ****    0 ROOT
