@<TRIPOS>MOLECULE
5WR
   69    73     1     0     0
SMALL
No Charge or Current Charge


@<TRIPOS>ATOM
      1 CAA         -6.5170     9.9250   -47.3870 ca         1 5WR       0.022400
      2 CAC         -6.0080    11.9390   -48.3630 ca         1 5WR       0.055900
      3 CAE         -4.2640    10.4930   -47.9920 ca         1 5WR       0.022400
      4 CAF         -5.1540     9.5420   -47.4310 ca         1 5WR       0.246000
      5 CAH         -5.5140     7.5340   -45.9140 c6         1 5WR       0.280100
      6 CAI         -4.7720     6.4160   -45.1650 ca         1 5WR      -0.107300
      7 CAJ         -3.6900     5.7450   -45.7660 ca         1 5WR      -0.040300
      8 CAK         -3.2540     6.2100   -47.1630 c6         1 5WR      -0.037400
      9 CAL         -3.3470     7.7540   -47.2520 c6         1 5WR       0.236800
     10 CAM         -5.2100     6.0390   -43.8810 ca         1 5WR      -0.040000
     11 CAN         -4.5810     4.9930   -43.1700 ca         1 5WR      -0.154600
     12 CAO         -3.4980     4.3210   -43.7860 ca         1 5WR      -0.080000
     13 CAP         -3.0620     4.6920   -45.0690 ca         1 5WR      -0.110000
     14 CAQ         -5.0860     4.6220   -41.7860 c          1 5WR       0.620700
     15 CAS         -4.5700     2.9610   -39.8850 ca         1 5WR      -0.023000
     16 CAT         -5.4570     3.4290   -38.8890 ca         1 5WR      -0.081000
     17 CAU         -5.5620     2.7660   -37.6460 ca         1 5WR      -0.161300
     18 CAV         -4.7520     1.6370   -37.3990 ca         1 5WR      -0.081000
     19 CAW         -3.8540     1.1700   -38.3770 ca         1 5WR      -0.097300
     20 CAX         -3.7770     1.8320   -39.6160 ca         1 5WR      -0.132000
     21 CAY         -6.5230     3.2900   -36.5720 c3         1 5WR       0.343300
     22 CAZ         -2.9840    -0.0590   -38.1000 c3         1 5WR       0.222100
     23 NAB         -6.9470    11.1180   -47.8510 nb         1 5WR      -0.137500
     24 NAD         -4.6860    11.6880   -48.4560 nb         1 5WR      -0.137500
     25 NAG         -4.7110     8.2780   -46.9370 nh         1 5WR      -0.832400
     26 NAR         -4.4160     3.5770   -41.1580 ns         1 5WR      -0.146000
     27 CBB         -0.7560     1.0480   -38.3650 c6         1 5WR       0.168800
     28 CBC          0.6550     1.2530   -37.7250 c6         1 5WR       0.162800
     29 CBE         -0.3300     1.0560   -35.4880 c6         1 5WR       0.162800
     30 CBF         -1.7420     0.8500   -36.1280 c6         1 5WR       0.168800
     31 CBI         -1.8410     5.7210   -47.5940 c3         1 5WR      -0.086100
     32 NBA         -1.6610     0.2390   -37.4910 n3         1 5WR      -0.734600
     33 NBD          0.5790     1.8620   -36.3600 n3         1 5WR      -0.719600
     34 OBH         -6.0290     5.2180   -41.2770 o          1 5WR      -0.571100
     35 F01         -6.8950     2.3310   -35.6920 f          1 5WR      -0.111667
     36 F02         -5.9590     4.2860   -35.8530 f          1 5WR      -0.111667
     37 F03         -7.6640     3.7850   -37.1050 f          1 5WR      -0.111667
     38 H1          -7.2850     9.2680   -46.9820 h4         1 5WR       0.021100
     39 H2          -6.3520    12.9020   -48.7370 h5         1 5WR       0.052100
     40 H3          -3.1950    10.3080   -48.0650 h4         1 5WR       0.021100
     41 H4          -5.8930     8.2460   -45.1650 h1         1 5WR       0.055700
     42 H5          -6.3950     7.0850   -46.3980 h1         1 5WR       0.055700
     43 H6          -3.9560     5.7880   -47.8960 hc         1 5WR       0.069700
     44 H7          -2.6110     8.1990   -46.5660 h1         1 5WR       0.049700
     45 H8          -3.0620     8.0500   -48.2730 h1         1 5WR       0.049700
     46 H9          -6.0530     6.5660   -43.4360 ha         1 5WR       0.140000
     47 H10         -2.9790     3.5050   -43.2880 ha         1 5WR       0.115000
     48 H11         -2.2290     4.1480   -45.5050 ha         1 5WR       0.122000
     49 H12         -6.0670     4.3100   -39.0590 ha         1 5WR       0.165000
     50 H13         -4.8090     1.1220   -36.4430 ha         1 5WR       0.132000
     51 H14         -3.0900     1.4650   -40.3750 ha         1 5WR       0.112000
     52 H15         -3.5450    -0.7410   -37.4460 h1         1 5WR       0.061200
     53 H16         -2.8390    -0.5990   -39.0460 h1         1 5WR       0.061200
     54 H17         -3.6720     3.1760   -41.7120 hn         1 5WR       0.153000
     55 H19         -0.6320     0.5590   -39.3420 h1         1 5WR       0.039950
     56 H20          1.1600     0.2770   -37.6750 h1         1 5WR       0.038950
     57 H21          1.2540     1.8900   -38.3930 h1         1 5WR       0.038950
     58 H22         -0.4560     1.5470   -34.5120 h1         1 5WR       0.038950
     59 H23          0.1110     0.0670   -35.2950 h1         1 5WR       0.038950
     60 H24         -2.2410     1.8290   -36.1780 h1         1 5WR       0.039950
     61 H25         -2.3420     0.2160   -35.4590 h1         1 5WR       0.039950
     62 H26          1.8160     2.5740   -34.7790 h1         1 5WR       0.031700
     63 H27          2.4350     1.1250   -35.6080 h1         1 5WR       0.031700
     64 H28          2.5300     2.7170   -36.3990 h1         1 5WR       0.031700
     65 H29         -1.8060     4.6300   -47.6920 hc         1 5WR       0.043367
     66 H30         -1.5610     6.1370   -48.5690 hc         1 5WR       0.043367
     67 H31         -1.0740     6.0260   -46.8710 hc         1 5WR       0.043367
     68 H18         -1.1940     2.0390   -38.5540 h1         1 5WR       0.039950
     69 CBG          1.9100     2.0790   -35.7550 c3         1 5WR       0.152100
@<TRIPOS>BOND
     1     1     4 ar  
     2     1    23 ar  
     3     1    38 1   
     4     2    23 ar  
     5     2    24 ar  
     6     2    39 1   
     7     3     4 ar  
     8     3    24 ar  
     9     3    40 1   
    10     4    25 1   
    11     5     6 1   
    12     5    25 1   
    13     5    41 1   
    14     5    42 1   
    15     6     7 ar  
    16     6    10 ar  
    17     7     8 1   
    18     7    13 ar  
    19     8     9 1   
    20     8    31 1   
    21     8    43 1   
    22     9    25 1   
    23     9    44 1   
    24     9    45 1   
    25    10    11 ar  
    26    10    46 1   
    27    11    12 ar  
    28    11    14 1   
    29    12    13 ar  
    30    12    47 1   
    31    13    48 1   
    32    14    26 1   
    33    14    34 2   
    34    15    16 ar  
    35    15    20 ar  
    36    15    26 1   
    37    16    17 ar  
    38    16    49 1   
    39    17    18 ar  
    40    17    21 1   
    41    18    19 ar  
    42    18    50 1   
    43    19    20 ar  
    44    19    22 1   
    45    20    51 1   
    46    21    35 1   
    47    21    36 1   
    48    21    37 1   
    49    22    32 1   
    50    22    52 1   
    51    22    53 1   
    52    26    54 1   
    53    27    28 1   
    54    27    32 1   
    55    27    55 1   
    56    27    68 1   
    57    28    33 1   
    58    28    56 1   
    59    28    57 1   
    60    29    30 1   
    61    29    33 1   
    62    29    58 1   
    63    29    59 1   
    64    30    32 1   
    65    30    60 1   
    66    30    61 1   
    67    31    65 1   
    68    31    66 1   
    69    31    67 1   
    70    33    69 1   
    71    62    69 1   
    72    63    69 1   
    73    64    69 1   
@<TRIPOS>SUBSTRUCTURE
     1 5WR         1 TEMP              0 ****  ****    0 ROOT
