@<TRIPOS>MOLECULE
5WS
   32    33     1     0     0
SMALL
bcc


@<TRIPOS>ATOM
      1 CAA         -3.5400     2.7130    -0.2760 c3         1 5WS      -0.061900
      2 CAL         -3.0270     1.3160    -0.1500 cc         1 5WS       0.019600
      3 CAI         -3.8470     0.2570    -0.3010 cd         1 5WS      -0.243200
      4 CAN         -3.4050    -1.1180    -0.1990 c          1 5WS       0.706700
      5 OAD         -4.1710    -2.0630    -0.3440 o          1 5WS      -0.620500
      6 NAQ         -2.0640    -1.3090     0.0710 n          1 5WS      -0.344000
      7 CAB         -1.5660    -2.6710     0.1770 c3         1 5WS       0.062300
      8 CAP         -1.1830    -0.2590     0.2410 ca         1 5WS       0.117600
      9 CAJ          0.1620    -0.5060     0.5360 ca         1 5WS      -0.162000
     10 CAO         -1.6350     1.0720     0.1350 ca         1 5WS      -0.129800
     11 CAH         -0.7180     2.1120     0.3200 ca         1 5WS      -0.058000
     12 CAG          0.6090     1.8660     0.5880 ca         1 5WS      -0.201000
     13 CAM          1.0450     0.5450     0.6980 ca         1 5WS       0.141600
     14 NAK          2.3970     0.2690     1.0100 nu         1 5WS      -0.680500
     15 SAR          3.4110    -0.3590    -0.1570 s6         1 5WS       1.218900
     16 OAE          4.6970    -0.5230     0.4970 o          1 5WS      -0.593300
     17 OAF          2.7470    -1.5100    -0.7420 o          1 5WS      -0.593300
     18 CAC          3.5490     0.8990    -1.4050 c3         1 5WS      -0.271300
     19 H1          -4.6120     2.7190    -0.4620 hc         1 5WS       0.051700
     20 H2          -3.3520     3.2910     0.6310 hc         1 5WS       0.051700
     21 H3          -3.0520     3.2390    -1.0980 hc         1 5WS       0.051700
     22 H4          -4.9000     0.3980    -0.5120 ha         1 5WS       0.160000
     23 H5          -2.3820    -3.3610     0.0020 h1         1 5WS       0.061367
     24 H6          -0.7900    -2.8560    -0.5660 h1         1 5WS       0.061367
     25 H7          -1.1590    -2.8590     1.1700 h1         1 5WS       0.061367
     26 H8           0.5270    -1.5120     0.6690 ha         1 5WS       0.171000
     27 H9          -1.0520     3.1380     0.2390 ha         1 5WS       0.139000
     28 H10          1.3050     2.6850     0.7120 ha         1 5WS       0.135000
     29 H11          2.8590     1.0010     1.5410 hn         1 5WS       0.433800
     30 H12          4.1850     0.5140    -2.2000 h1         1 5WS       0.104033
     31 H13          2.5610     1.1250    -1.8000 h1         1 5WS       0.104033
     32 H14          3.9950     1.7890    -0.9670 h1         1 5WS       0.104033
@<TRIPOS>BOND
     1     1     2 1   
     2     1    19 1   
     3     1    20 1   
     4     1    21 1   
     5     2     3 2   
     6     2    10 1   
     7     3     4 1   
     8     3    22 1   
     9     4     5 2   
    10     4     6 1   
    11     6     7 1   
    12     6     8 1   
    13     7    23 1   
    14     7    24 1   
    15     7    25 1   
    16     8     9 ar  
    17     8    10 ar  
    18     9    13 ar  
    19     9    26 1   
    20    10    11 ar  
    21    11    12 ar  
    22    11    27 1   
    23    12    13 ar  
    24    12    28 1   
    25    13    14 1   
    26    14    15 1   
    27    14    29 1   
    28    15    16 2   
    29    15    17 2   
    30    15    18 1   
    31    18    30 1   
    32    18    31 1   
    33    18    32 1   
@<TRIPOS>SUBSTRUCTURE
     1 5WS         1 TEMP              0 ****  ****    0 ROOT
