@<TRIPOS>MOLECULE
5WS
   32    33     1     0     0
SMALL
No Charge or Current Charge


@<TRIPOS>ATOM
      1 CAA         -3.7990     2.7670     0.1560 c3         1 5WS      -0.061900
      2 CAL         -3.1240     1.4260     0.0000 cc         1 5WS       0.019600
      3 CAI         -3.8270     0.3130    -0.4100 cd         1 5WS      -0.293200
      4 CAN         -3.2810    -1.0420    -0.5790 c          1 5WS       0.564200
      5 OAD         -3.9910    -1.9680    -0.9480 o          1 5WS      -0.545000
      6 NAQ         -1.9120    -1.1880    -0.2790 n          1 5WS      -0.277000
      7 CAB         -1.3170    -2.5520    -0.3290 c3         1 5WS       0.062300
      8 CAP         -1.0990    -0.0680     0.1250 ca         1 5WS       0.117600
      9 CAJ          0.2970    -0.2100     0.3160 ca         1 5WS      -0.144000
     10 CAO         -1.6890     1.2120     0.2510 ca         1 5WS      -0.129800
     11 CAH         -0.8750     2.3050     0.6220 ca         1 5WS      -0.040000
     12 CAG          0.5000     2.1390     0.8370 ca         1 5WS      -0.183000
     13 CAM          1.0980     0.8870     0.6730 ca         1 5WS       0.280000
     14 NAK          2.4710     0.7900     0.8840 nu         1 5WS      -0.874100
     15 SAR          3.5670    -0.2990     0.2750 s6         1 5WS       1.188100
     16 OAE          4.8780     0.2610     0.6060 o          1 5WS      -0.522500
     17 OAF          3.1730    -1.6180     0.7740 o          1 5WS      -0.522500
     18 CAC          3.3440    -0.2360    -1.4900 c3         1 5WS      -0.382100
     19 H1          -4.8730     2.7040    -0.0550 hc         1 5WS       0.051700
     20 H2          -3.6860     3.1460     1.1780 hc         1 5WS       0.051700
     21 H3          -3.3710     3.5030    -0.5340 hc         1 5WS       0.051700
     22 H4          -4.8840     0.3760    -0.6360 ha         1 5WS       0.210000
     23 H5          -2.0750    -3.3260    -0.5000 h1         1 5WS       0.061367
     24 H6          -0.5810    -2.6020    -1.1400 h1         1 5WS       0.061367
     25 H7          -0.8220    -2.7740     0.6250 h1         1 5WS       0.061367
     26 H8           0.7640    -1.1770     0.1980 ha         1 5WS       0.153000
     27 H9          -1.2940     3.3010     0.7420 ha         1 5WS       0.121000
     28 H10          1.1010     2.9980     1.1210 ha         1 5WS       0.117000
     29 H11          2.9870     1.6470     1.0300 hn         1 5WS       0.489000
     30 H12          4.0720    -0.9210    -1.9360 h1         1 5WS       0.104033
     31 H13          2.3190    -0.5490    -1.7110 h1         1 5WS       0.104033
     32 H14          3.5220     0.7960    -1.8090 h1         1 5WS       0.104033
@<TRIPOS>BOND
     1     1     2 1   
     2     1    19 1   
     3     1    20 1   
     4     1    21 1   
     5     2     3 2   
     6     2    10 1   
     7     3     4 1   
     8     3    22 1   
     9     4     5 2   
    10     4     6 1   
    11     6     7 1   
    12     6     8 1   
    13     7    23 1   
    14     7    24 1   
    15     7    25 1   
    16     8     9 ar  
    17     8    10 ar  
    18     9    13 ar  
    19     9    26 1   
    20    10    11 ar  
    21    11    12 ar  
    22    11    27 1   
    23    12    13 ar  
    24    12    28 1   
    25    13    14 1   
    26    14    15 1   
    27    14    29 1   
    28    15    16 2   
    29    15    17 2   
    30    15    18 1   
    31    18    30 1   
    32    18    31 1   
    33    18    32 1   
@<TRIPOS>SUBSTRUCTURE
     1 5WS         1 TEMP              0 ****  ****    0 ROOT
