@<TRIPOS>MOLECULE
5WT
   31    32     1     0     0
SMALL
No Charge or Current Charge


@<TRIPOS>ATOM
      1 CAB         -2.6240     3.0570     0.0350 c3         1 5WT      -0.062900
      2 CAM         -2.3330     1.5770    -0.0330 cc         1 5WT       0.035600
      3 CAH         -3.3480     0.6510    -0.1450 cd         1 5WT      -0.310200
      4 CAN         -3.1850    -0.8080    -0.1970 c          1 5WT       0.568200
      5 OAE         -4.1540    -1.5500    -0.2950 o          1 5WT      -0.556000
      6 NAQ         -1.8590    -1.2750    -0.1140 n          1 5WT      -0.282000
      7 CAC         -1.6270    -2.7420    -0.0310 c3         1 5WT       0.069300
      8 CAP         -0.7410    -0.3730    -0.0350 ca         1 5WT       0.135600
      9 CAI          0.5890    -0.8540    -0.0880 ca         1 5WT      -0.240000
     10 CAO         -0.9700     1.0220    -0.0100 ca         1 5WT      -0.156800
     11 CAG          0.1400     1.8950     0.0270 ca         1 5WT      -0.030000
     12 CAF          1.4520     1.4010     0.0130 ca         1 5WT      -0.168000
     13 CAL          1.6890     0.0180    -0.0530 ca         1 5WT       0.035000
     14 NAJ          2.9860    -0.5610    -0.0920 ns         1 5WT      -0.150000
     15 CAK          4.2590    -0.0080    -0.0670 c          1 5WT       0.611100
     16 OAD          4.4980     1.1910     0.0020 o          1 5WT      -0.572100
     17 CAA          5.3840    -1.0380    -0.1340 c3         1 5WT      -0.183100
     18 H1          -3.7020     3.2550     0.0410 hc         1 5WT       0.051367
     19 H2          -2.2040     3.4970     0.9470 hc         1 5WT       0.051367
     20 H3          -2.1970     3.5800    -0.8280 hc         1 5WT       0.051367
     21 H4          -4.3830     0.9650    -0.1920 ha         1 5WT       0.207000
     22 H5          -2.5630    -3.3000     0.0930 h1         1 5WT       0.053700
     23 H6          -1.1340    -3.0880    -0.9490 h1         1 5WT       0.053700
     24 H7          -0.9870    -2.9670     0.8310 h1         1 5WT       0.053700
     25 H8           0.7910    -1.9180    -0.1530 ha         1 5WT       0.116000
     26 H9           0.0020     2.9730     0.0570 ha         1 5WT       0.118000
     27 H10          2.2680     2.1160     0.0400 ha         1 5WT       0.153000
     28 H11          2.9780    -1.5710    -0.1500 hn         1 5WT       0.150000
     29 H12          5.2540    -1.7610     0.6790 hc         1 5WT       0.065700
     30 H13          5.2440    -1.6610    -1.0240 hc         1 5WT       0.065700
     31 H14          6.3790    -0.5790    -0.1120 hc         1 5WT       0.065700
@<TRIPOS>BOND
     1     1     2 1   
     2     1    18 1   
     3     1    19 1   
     4     1    20 1   
     5     2     3 2   
     6     2    10 1   
     7     3     4 1   
     8     3    21 1   
     9     4     5 2   
    10     4     6 1   
    11     6     7 1   
    12     6     8 1   
    13     7    22 1   
    14     7    23 1   
    15     7    24 1   
    16     8     9 ar  
    17     8    10 ar  
    18     9    13 ar  
    19     9    25 1   
    20    10    11 ar  
    21    11    12 ar  
    22    11    26 1   
    23    12    13 ar  
    24    12    27 1   
    25    13    14 1   
    26    14    15 1   
    27    14    28 1   
    28    15    16 2   
    29    15    17 1   
    30    17    29 1   
    31    17    30 1   
    32    17    31 1   
@<TRIPOS>SUBSTRUCTURE
     1 5WT         1 TEMP              0 ****  ****    0 ROOT
