@<TRIPOS>MOLECULE
5WT
   31    32     1     0     0
SMALL
bcc


@<TRIPOS>ATOM
      1 CAB         -2.5700     3.0000    -0.0290 c3         1 5WT      -0.062900
      2 CAM         -2.3090     1.5270    -0.0340 cc         1 5WT       0.035600
      3 CAH         -3.3250     0.6400    -0.0290 cd         1 5WT      -0.260200
      4 CAN         -3.1300    -0.7940    -0.0340 c          1 5WT       0.710700
      5 OAE         -4.0690    -1.5820    -0.0290 o          1 5WT      -0.631500
      6 NAQ         -1.8190    -1.2340    -0.0430 n          1 5WT      -0.349000
      7 CAC         -1.5690    -2.6660    -0.0450 c3         1 5WT       0.069300
      8 CAP         -0.7450    -0.3660    -0.0500 ca         1 5WT       0.135600
      9 CAI          0.5620    -0.8550    -0.0610 ca         1 5WT      -0.258000
     10 CAO         -0.9600     1.0270    -0.0460 ca         1 5WT      -0.156800
     11 CAG          0.1570     1.8670    -0.0530 ca         1 5WT      -0.048000
     12 CAF          1.4480     1.3900    -0.0650 ca         1 5WT      -0.186000
     13 CAL          1.6560     0.0040    -0.0690 ca         1 5WT       0.127600
     14 NAJ          2.9100    -0.6020    -0.0800 ns         1 5WT      -0.476100
     15 CAK          4.1500    -0.0370    -0.0970 c          1 5WT       0.678100
     16 OAD          4.3500     1.1630    -0.0960 o          1 5WT      -0.572100
     17 CAA          5.2790    -1.0350    -0.1300 c3         1 5WT      -0.183100
     18 H1          -3.6380     3.2050    -0.0130 hc         1 5WT       0.051367
     19 H2          -2.1200     3.4780     0.8420 hc         1 5WT       0.051367
     20 H3          -2.1460     3.4800    -0.9130 hc         1 5WT       0.051367
     21 H4          -4.3540     0.9740    -0.0210 ha         1 5WT       0.157000
     22 H5          -2.5150    -3.1930    -0.0390 h1         1 5WT       0.053700
     23 H6          -1.0150    -2.9600    -0.9360 h1         1 5WT       0.053700
     24 H7          -1.0030    -2.9620     0.8380 h1         1 5WT       0.053700
     25 H8           0.7460    -1.9200    -0.0650 ha         1 5WT       0.134000
     26 H9           0.0110     2.9380    -0.0500 ha         1 5WT       0.136000
     27 H10          2.2730     2.0810    -0.0700 ha         1 5WT       0.171000
     28 H11          2.8890    -1.6100    -0.0820 hn         1 5WT       0.316500
     29 H12          4.9610    -2.0670     0.0020 hc         1 5WT       0.065700
     30 H13          5.7960    -0.9570    -1.0870 hc         1 5WT       0.065700
     31 H14          6.0000    -0.7900     0.6490 hc         1 5WT       0.065700
@<TRIPOS>BOND
     1     1     2 1   
     2     1    18 1   
     3     1    19 1   
     4     1    20 1   
     5     2     3 2   
     6     2    10 1   
     7     3     4 1   
     8     3    21 1   
     9     4     5 2   
    10     4     6 1   
    11     6     7 1   
    12     6     8 1   
    13     7    22 1   
    14     7    23 1   
    15     7    24 1   
    16     8     9 ar  
    17     8    10 ar  
    18     9    13 ar  
    19     9    25 1   
    20    10    11 ar  
    21    11    12 ar  
    22    11    26 1   
    23    12    13 ar  
    24    12    27 1   
    25    13    14 1   
    26    14    15 1   
    27    14    28 1   
    28    15    16 2   
    29    15    17 1   
    30    17    29 1   
    31    17    30 1   
    32    17    31 1   
@<TRIPOS>SUBSTRUCTURE
     1 5WT         1 TEMP              0 ****  ****    0 ROOT
