@<TRIPOS>MOLECULE
5WU
   28    29     1     0     0
SMALL
bcc


@<TRIPOS>ATOM
      1 C4          -0.0150    -0.4670    -0.2090 cc         1 5WU      -0.033600
      2 C5           1.1330     0.2740     0.0220 cd         1 5WU      -0.377900
      3 C6           2.4130    -0.3420     0.2970 c          1 5WU       0.621700
      4 N1          -0.9980     0.4140    -0.4010 na         1 5WU       0.114400
      5 C7           2.3720    -1.8550     0.3860 c6         1 5WU      -0.179400
      6 C8           1.3060    -2.4980    -0.5010 c6         1 5WU      -0.063400
      7 C9          -0.0930    -1.9490    -0.2210 c6         1 5WU      -0.020100
      8 O1           3.4370     0.2930     0.4850 o          1 5WU      -0.537100
      9 C1           0.7190     1.6280    -0.0510 cd         1 5WU       0.395600
     10 C            1.5430     2.8540     0.1150 c3         1 5WU      -0.124400
     11 N           -0.5690     1.6900    -0.3000 nc         1 5WU      -0.532800
     12 C2          -2.3990     0.1430    -0.6240 c3         1 5WU       0.048300
     13 C3          -3.1530     0.0120     0.6910 c3         1 5WU       0.119400
     14 O           -4.4980    -0.2400     0.3730 oh         1 5WU      -0.596800
     15 H1           3.3610    -2.2530     0.1520 hc         1 5WU       0.068700
     16 H2           2.1750    -2.1050     1.4360 hc         1 5WU       0.068700
     17 H3           1.5540    -2.3250    -1.5510 hc         1 5WU       0.051700
     18 H4           1.3130    -3.5780    -0.3500 hc         1 5WU       0.051700
     19 H5          -0.4520    -2.3030     0.7510 hc         1 5WU       0.059700
     20 H6          -0.8050    -2.3090    -0.9670 hc         1 5WU       0.059700
     21 H7           2.3240     2.9080    -0.6430 hc         1 5WU       0.056033
     22 H8           0.9260     3.7470     0.0380 hc         1 5WU       0.056033
     23 H9           2.0420     2.8610     1.0850 hc         1 5WU       0.056033
     24 H10         -2.8050     0.9570    -1.2230 h1         1 5WU       0.079700
     25 H11         -2.4880    -0.7750    -1.2050 h1         1 5WU       0.079700
     26 H12         -2.7110    -0.8020     1.2800 h1         1 5WU       0.032200
     27 H13         -3.0290     0.9340     1.2710 h1         1 5WU       0.032200
     28 H14         -4.9800    -0.3880     1.1920 ho         1 5WU       0.414000
@<TRIPOS>BOND
     1     1     2 2   
     2     1     4 1   
     3     1     7 1   
     4     2     3 1   
     5     2     9 1   
     6     3     5 1   
     7     3     8 2   
     8     4    11 1   
     9     4    12 1   
    10     5     6 1   
    11     5    15 1   
    12     5    16 1   
    13     6     7 1   
    14     6    17 1   
    15     6    18 1   
    16     7    19 1   
    17     7    20 1   
    18     9    10 1   
    19     9    11 2   
    20    10    21 1   
    21    10    22 1   
    22    10    23 1   
    23    12    13 1   
    24    12    24 1   
    25    12    25 1   
    26    13    14 1   
    27    13    26 1   
    28    13    27 1   
    29    14    28 1   
@<TRIPOS>SUBSTRUCTURE
     1 5WU         1 TEMP              0 ****  ****    0 ROOT
