@<TRIPOS>MOLECULE
5WU
   28    29     1     0     0
SMALL
No Charge or Current Charge


@<TRIPOS>ATOM
      1 C4          -0.0200    -0.4340    -0.1560 cc         1 5WU      -0.084300
      2 C5           1.1100     0.3010     0.0400 cd         1 5WU      -0.312600
      3 C6           2.4280    -0.3170     0.2900 c          1 5WU       0.621700
      4 N1          -1.0150     0.5170    -0.3630 na         1 5WU       0.135800
      5 C7           2.4040    -1.8520     0.4140 c6         1 5WU      -0.179400
      6 C8           1.3100    -2.5250    -0.4650 c6         1 5WU      -0.063400
      7 C9          -0.0980    -1.9410    -0.1740 c6         1 5WU      -0.020100
      8 O1           3.4700     0.3200     0.3700 o          1 5WU      -0.537100
      9 C1           0.7490     1.6580    -0.0700 cd         1 5WU       0.330300
     10 C            1.6500     2.8540     0.0600 c3         1 5WU      -0.124400
     11 N           -0.5410     1.8150    -0.3110 nc         1 5WU      -0.532800
     12 C2          -2.4410     0.2580    -0.6190 c3         1 5WU       0.077600
     13 C3          -3.2200    -0.1030     0.6610 c3         1 5WU       0.142600
     14 O           -4.5980    -0.3570     0.3500 oh         1 5WU      -0.659000
     15 H1           3.4080    -2.2600     0.2420 hc         1 5WU       0.068700
     16 H2           2.1370    -2.0620     1.4580 hc         1 5WU       0.068700
     17 H3           1.5550    -2.3720    -1.5260 hc         1 5WU       0.051700
     18 H4           1.3060    -3.6110    -0.3000 hc         1 5WU       0.051700
     19 H5          -0.4600    -2.3120     0.7950 hc         1 5WU       0.059700
     20 H6          -0.8110    -2.2970    -0.9310 hc         1 5WU       0.059700
     21 H7           2.4230     2.8430    -0.7160 hc         1 5WU       0.056033
     22 H8           1.0930     3.7930    -0.0360 hc         1 5WU       0.056033
     23 H9           2.1490     2.8590     1.0350 hc         1 5WU       0.056033
     24 H10         -2.8870     1.1500    -1.0750 h1         1 5WU       0.079700
     25 H11         -2.5210    -0.5650    -1.3390 h1         1 5WU       0.079700
     26 H12         -2.7640    -0.9900     1.1220 h1         1 5WU       0.032200
     27 H13         -3.1370     0.7270     1.3760 h1         1 5WU       0.032200
     28 H14         -5.0530    -0.5710     1.1960 ho         1 5WU       0.453000
@<TRIPOS>BOND
     1     1     2 2   
     2     1     4 1   
     3     1     7 1   
     4     2     3 1   
     5     2     9 1   
     6     3     5 1   
     7     3     8 2   
     8     4    11 1   
     9     4    12 1   
    10     5     6 1   
    11     5    15 1   
    12     5    16 1   
    13     6     7 1   
    14     6    17 1   
    15     6    18 1   
    16     7    19 1   
    17     7    20 1   
    18     9    10 1   
    19     9    11 2   
    20    10    21 1   
    21    10    22 1   
    22    10    23 1   
    23    12    13 1   
    24    12    24 1   
    25    12    25 1   
    26    13    14 1   
    27    13    26 1   
    28    13    27 1   
    29    14    28 1   
@<TRIPOS>SUBSTRUCTURE
     1 5WU         1 TEMP              0 ****  ****    0 ROOT
