@<TRIPOS>MOLECULE
5WV
   20    21     1     0     0
SMALL
abcg2


@<TRIPOS>ATOM
      1 OAB         -1.6610    -1.9110     0.0670 o          1 5WV      -0.545000
      2 CAH         -1.1250    -0.8140     0.0290 c          1 5WV       0.580600
      3 CAJ          0.3250    -0.5230     0.0130 ca         1 5WV      -0.159600
      4 CAF          1.3960    -1.4010     0.0400 ca         1 5WV      -0.038000
      5 CAD          2.6740    -0.8610     0.0170 ca         1 5WV      -0.122000
      6 CAC          2.8600     0.5210    -0.0320 ca         1 5WV      -0.088000
      7 CAE          1.7770     1.3930    -0.0580 ca         1 5WV      -0.100000
      8 CAI          0.5050     0.8490    -0.0350 ca         1 5WV      -0.085300
      9 CAG         -0.8360     1.5120    -0.0540 c5         1 5WV       0.143300
     10 NAK         -1.7460     0.3880    -0.0060 n          1 5WV      -0.419800
     11 CAA         -3.1700     0.5780    -0.0160 c3         1 5WV       0.099300
     12 H1           1.2420    -2.4720     0.0760 ha         1 5WV       0.135000
     13 H2           3.5360    -1.5150     0.0370 ha         1 5WV       0.118000
     14 H3           3.8660     0.9210    -0.0480 ha         1 5WV       0.115000
     15 H4           1.9310     2.4640    -0.0960 ha         1 5WV       0.119000
     16 H5          -0.9820     2.1760     0.8030 h1         1 5WV       0.059700
     17 H6          -0.9900     2.1080    -0.9590 h1         1 5WV       0.059700
     18 H7          -3.5040     1.0080    -0.9610 h1         1 5WV       0.042700
     19 H8          -3.6650    -0.3800     0.1230 h1         1 5WV       0.042700
     20 H9          -3.4750     1.2440     0.7920 h1         1 5WV       0.042700
@<TRIPOS>BOND
     1     1     2 2   
     2     2     3 1   
     3     2    10 1   
     4     3     4 ar  
     5     3     8 ar  
     6     4     5 ar  
     7     4    12 1   
     8     5     6 ar  
     9     5    13 1   
    10     6     7 ar  
    11     6    14 1   
    12     7     8 ar  
    13     7    15 1   
    14     8     9 1   
    15     9    10 1   
    16     9    16 1   
    17     9    17 1   
    18    10    11 1   
    19    11    18 1   
    20    11    19 1   
    21    11    20 1   
@<TRIPOS>SUBSTRUCTURE
     1 5WV         1 TEMP              0 ****  ****    0 ROOT
