@<TRIPOS>MOLECULE
5WV
   20    21     1     0     0
SMALL
No Charge or Current Charge


@<TRIPOS>ATOM
      1 OAB         -1.6630    -1.9020    -0.1180 o          1 5WV      -0.545000
      2 CAH         -1.1250    -0.8040    -0.0670 c          1 5WV       0.580600
      3 CAJ          0.3220    -0.5220    -0.0460 ca         1 5WV      -0.159600
      4 CAF          1.4000    -1.4190    -0.0790 ca         1 5WV      -0.038000
      5 CAD          2.7050    -0.8850    -0.0480 ca         1 5WV      -0.122000
      6 CAC          2.9020     0.5130     0.0140 ca         1 5WV      -0.088000
      7 CAE          1.7970     1.3910     0.0470 ca         1 5WV      -0.100000
      8 CAI          0.5030     0.8490     0.0160 ca         1 5WV      -0.085300
      9 CAG         -0.8250     1.5980     0.0410 c5         1 5WV       0.143300
     10 NAK         -1.7700     0.4400    -0.0150 n          1 5WV      -0.419800
     11 CAA         -3.2380     0.5430    -0.0190 c3         1 5WV       0.099300
     12 H1           1.2350    -2.4940    -0.1270 ha         1 5WV       0.135000
     13 H2           3.5630    -1.5530    -0.0730 ha         1 5WV       0.118000
     14 H3           3.9120     0.9160     0.0380 ha         1 5WV       0.115000
     15 H4           1.9470     2.4670     0.0950 ha         1 5WV       0.119000
     16 H5          -0.9450     2.1810     0.9640 h1         1 5WV       0.059700
     17 H6          -0.9350     2.2600    -0.8280 h1         1 5WV       0.059700
     18 H7          -3.6390     0.0940    -0.9370 h1         1 5WV       0.042700
     19 H8          -3.6490     0.0150     0.8510 h1         1 5WV       0.042700
     20 H9          -3.5390     1.5970     0.0250 h1         1 5WV       0.042700
@<TRIPOS>BOND
     1     1     2 2   
     2     2     3 1   
     3     2    10 1   
     4     3     4 ar  
     5     3     8 ar  
     6     4     5 ar  
     7     4    12 1   
     8     5     6 ar  
     9     5    13 1   
    10     6     7 ar  
    11     6    14 1   
    12     7     8 ar  
    13     7    15 1   
    14     8     9 1   
    15     9    10 1   
    16     9    16 1   
    17     9    17 1   
    18    10    11 1   
    19    11    18 1   
    20    11    19 1   
    21    11    20 1   
@<TRIPOS>SUBSTRUCTURE
     1 5WV         1 TEMP              0 ****  ****    0 ROOT
