@<TRIPOS>MOLECULE
5WW
   34    36     1     0     0
SMALL
abcg2


@<TRIPOS>ATOM
      1 CAT          6.2850     1.0970     0.1880 c3         1 5WW       0.147900
      2 OAR          5.5550    -0.0160    -0.2920 os         1 5WW      -0.337100
      3 CAP          4.2180    -0.0080    -0.1790 ca         1 5WW       0.157100
      4 CAQ          3.5470    -1.1340    -0.6620 ca         1 5WW      -0.174500
      5 CAM          2.1710    -1.2130    -0.5850 ca         1 5WW      -0.053000
      6 CAO          3.4800     1.0340     0.3820 ca         1 5WW      -0.174500
      7 CAN          2.0990     0.9400     0.4540 ca         1 5WW      -0.053000
      8 CAL          1.4170    -0.1750    -0.0270 ca         1 5WW      -0.114800
      9 CAI         -0.0480    -0.2450     0.0480 cc         1 5WW       0.119400
     10 CAH         -0.8630     0.8240    -0.1050 cd         1 5WW      -0.245200
     11 CAE         -2.2830     0.6700    -0.0220 ca         1 5WW      -0.030800
     12 CAD         -3.1690     1.7710    -0.1800 ca         1 5WW       0.274000
     13 NAS         -2.6790     3.0440    -0.3850 nv         1 5WW      -1.065000
     14 CAC         -4.5340     1.5490    -0.0610 ca         1 5WW      -0.157000
     15 CAB         -5.0460     0.2790     0.1990 ca         1 5WW      -0.093000
     16 CAA         -4.2040    -0.8020     0.3330 ca         1 5WW      -0.087000
     17 CAF         -2.8250    -0.6060     0.2200 ca         1 5WW      -0.133600
     18 CAG         -1.9360    -1.7590     0.3720 c          1 5WW       0.569600
     19 OAK         -2.3210    -2.9020     0.5870 o          1 5WW      -0.560000
     20 NAJ         -0.6000    -1.4820     0.2740 ns         1 5WW      -0.382100
     21 HAT1         7.3320     0.8890    -0.0110 h1         1 5WW       0.043700
     22 HAT2         6.0050     2.0200    -0.3260 h1         1 5WW       0.043700
     23 HAT3         6.1520     1.2370     1.2640 h1         1 5WW       0.043700
     24 HAQ          4.1120    -1.9440    -1.1060 ha         1 5WW       0.126500
     25 HAO          3.9600     1.9160     0.7810 ha         1 5WW       0.126500
     26 HAM          1.6850    -2.0910    -0.9920 ha         1 5WW       0.119500
     27 HAN          1.5500     1.7500     0.9160 ha         1 5WW       0.119500
     28 HAH         -0.4160     1.7860    -0.3070 ha         1 5WW       0.192000
     29 HAJ          0.0200    -2.2640     0.4360 hn         1 5WW       0.326500
     30 HAS1        -1.8430     3.1190    -0.9430 hn         1 5WW       0.444000
     31 HAS2        -3.3690     3.7110    -0.6930 hn         1 5WW       0.444000
     32 HAC         -5.2150     2.3840    -0.1770 ha         1 5WW       0.111000
     33 HAB         -6.1170     0.1480     0.2820 ha         1 5WW       0.116000
     34 HAA         -4.5950    -1.7910     0.5260 ha         1 5WW       0.138000
@<TRIPOS>BOND
     1     1     2 1   
     2     1    21 1   
     3     1    22 1   
     4     1    23 1   
     5     2     3 1   
     6     3     4 ar  
     7     3     6 ar  
     8     4     5 ar  
     9     4    24 1   
    10     5     8 ar  
    11     5    26 1   
    12     6     7 ar  
    13     6    25 1   
    14     7     8 ar  
    15     7    27 1   
    16     8     9 1   
    17     9    10 2   
    18     9    20 1   
    19    10    11 1   
    20    10    28 1   
    21    11    12 ar  
    22    11    17 ar  
    23    12    13 1   
    24    12    14 ar  
    25    13    30 1   
    26    13    31 1   
    27    14    15 ar  
    28    14    32 1   
    29    15    16 ar  
    30    15    33 1   
    31    16    17 ar  
    32    16    34 1   
    33    17    18 1   
    34    18    19 2   
    35    18    20 1   
    36    20    29 1   
@<TRIPOS>SUBSTRUCTURE
     1 5WW         1 TEMP              0 ****  ****    0 ROOT
