@<TRIPOS>MOLECULE
5WW
   34    36     1     0     0
SMALL
No Charge or Current Charge


@<TRIPOS>ATOM
      1 CAT          6.3720     1.1550     0.1930 c3         1 5WW       0.147900
      2 OAR          5.5950     0.0800    -0.3640 os         1 5WW      -0.337100
      3 CAP          4.2230     0.0170    -0.2310 ca         1 5WW       0.157100
      4 CAQ          3.5560    -1.0730    -0.8100 ca         1 5WW      -0.174500
      5 CAM          2.1600    -1.1920    -0.7080 ca         1 5WW      -0.053000
      6 CAO          3.4780     0.9970     0.4600 ca         1 5WW      -0.174500
      7 CAN          2.0810     0.8790     0.5610 ca         1 5WW      -0.053000
      8 CAL          1.4080    -0.2140    -0.0240 ca         1 5WW      -0.114800
      9 CAI         -0.0450    -0.3470     0.0840 cc         1 5WW       0.119400
     10 CAH         -0.8450     0.7520    -0.1270 cd         1 5WW      -0.245200
     11 CAE         -2.3140     0.6450    -0.0330 ca         1 5WW      -0.030800
     12 CAD         -3.1760     1.7550    -0.2420 ca         1 5WW       0.274000
     13 NAS         -2.6960     3.0070    -0.5560 nv         1 5WW      -1.065000
     14 CAC         -4.5650     1.5880    -0.1310 ca         1 5WW      -0.157000
     15 CAB         -5.1100     0.3330     0.1810 ca         1 5WW      -0.093000
     16 CAA         -4.2640    -0.7680     0.3840 ca         1 5WW      -0.087000
     17 CAF         -2.8650    -0.6220     0.2790 ca         1 5WW      -0.133600
     18 CAG         -1.9540    -1.8090     0.4990 c          1 5WW       0.569600
     19 OAK         -2.3670    -2.9280     0.7700 o          1 5WW      -0.560000
     20 NAJ         -0.6080    -1.5690     0.3770 ns         1 5WW      -0.382100
     21 HAT1         7.4360     1.0100    -0.0290 h1         1 5WW       0.043700
     22 HAT2         6.0650     2.1190    -0.2320 h1         1 5WW       0.043700
     23 HAT3         6.2550     1.1970     1.2840 h1         1 5WW       0.043700
     24 HAQ          4.1260    -1.8290    -1.3430 ha         1 5WW       0.126500
     25 HAO          3.9630     1.8510     0.9240 ha         1 5WW       0.126500
     26 HAM          1.6620    -2.0410    -1.1730 ha         1 5WW       0.119500
     27 HAN          1.5220     1.6360     1.1080 ha         1 5WW       0.119500
     28 HAH         -0.3780     1.6980    -0.3780 ha         1 5WW       0.192000
     29 HAJ         -0.0080    -2.3680     0.5340 hn         1 5WW       0.326500
     30 HAS1        -1.7200     3.1240    -0.8150 hn         1 5WW       0.444000
     31 HAS2        -3.3440     3.7420    -0.8320 hn         1 5WW       0.444000
     32 HAC         -5.2300     2.4330    -0.2880 ha         1 5WW       0.111000
     33 HAB         -6.1880     0.2130     0.2640 ha         1 5WW       0.116000
     34 HAA         -4.7000    -1.7360     0.6250 ha         1 5WW       0.138000
@<TRIPOS>BOND
     1     1     2 1   
     2     1    21 1   
     3     1    22 1   
     4     1    23 1   
     5     2     3 1   
     6     3     4 ar  
     7     3     6 ar  
     8     4     5 ar  
     9     4    24 1   
    10     5     8 ar  
    11     5    26 1   
    12     6     7 ar  
    13     6    25 1   
    14     7     8 ar  
    15     7    27 1   
    16     8     9 1   
    17     9    10 2   
    18     9    20 1   
    19    10    11 1   
    20    10    28 1   
    21    11    12 ar  
    22    11    17 ar  
    23    12    13 1   
    24    12    14 ar  
    25    13    30 1   
    26    13    31 1   
    27    14    15 ar  
    28    14    32 1   
    29    15    16 ar  
    30    15    33 1   
    31    16    17 ar  
    32    16    34 1   
    33    17    18 1   
    34    18    19 2   
    35    18    20 1   
    36    20    29 1   
@<TRIPOS>SUBSTRUCTURE
     1 5WW         1 TEMP              0 ****  ****    0 ROOT
