@<TRIPOS>MOLECULE
5WX
   20    21     1     0     0
SMALL
No Charge or Current Charge


@<TRIPOS>ATOM
      1 CAA          3.2240    -1.2220    -0.0060 c3         1 5WX       0.147900
      2 OAG          1.7850    -1.2030    -0.0170 os         1 5WX      -0.342100
      3 CAJ          1.0720    -0.0230    -0.0110 ca         1 5WX       0.223100
      4 CAL         -0.3250    -0.0600    -0.0250 ca         1 5WX      -0.310900
      5 CAI         -1.2640    -1.1160    -0.0460 cc         1 5WX       0.608800
      6 NAB         -0.9440    -2.4200    -0.0740 nv         1 5WX      -0.988200
      7 NAF         -2.5190    -0.6960    -0.0310 nd         1 5WX      -0.389700
      8 OAH         -2.4280     0.7640    -0.0070 os         1 5WX      -0.113100
      9 CAK         -1.0870     1.0650    -0.0050 ca         1 5WX       0.137100
     10 CAE         -0.5140     2.3400     0.0230 ca         1 5WX      -0.166000
     11 CAC          0.8940     2.4300     0.0310 ca         1 5WX      -0.023000
     12 CAD          1.6840     1.2540     0.0160 ca         1 5WX      -0.249000
     13 H1           3.6130    -0.7310     0.8950 h1         1 5WX       0.046700
     14 H2           3.5910    -2.2560    -0.0150 h1         1 5WX       0.046700
     15 H3           3.6270    -0.7100    -0.8890 h1         1 5WX       0.046700
     16 H4           0.0230    -2.6430     0.1380 hn         1 5WX       0.475000
     17 H5          -1.6510    -3.0790     0.2310 hn         1 5WX       0.475000
     18 H6          -1.1370     3.2310     0.0400 ha         1 5WX       0.140000
     19 H7           1.3730     3.4070     0.0530 ha         1 5WX       0.115000
     20 H8           2.7650     1.3570     0.0270 ha         1 5WX       0.121000
@<TRIPOS>BOND
     1     1     2 1   
     2     1    13 1   
     3     1    14 1   
     4     1    15 1   
     5     2     3 1   
     6     3     4 ar  
     7     3    12 ar  
     8     4     5 1   
     9     4     9 ar  
    10     5     6 1   
    11     5     7 2   
    12     6    16 1   
    13     6    17 1   
    14     7     8 1   
    15     8     9 1   
    16     9    10 ar  
    17    10    11 ar  
    18    10    18 1   
    19    11    12 ar  
    20    11    19 1   
    21    12    20 1   
@<TRIPOS>SUBSTRUCTURE
     1 5WX         1 TEMP              0 ****  ****    0 ROOT
