@<TRIPOS>MOLECULE
5WX
   20    21     1     0     0
SMALL
bcc


@<TRIPOS>ATOM
      1 CAA          3.2150    -1.1400    -0.0090 c3         1 5WX       0.124700
      2 OAG          1.7970    -1.1760    -0.0240 os         1 5WX      -0.318900
      3 CAJ          1.1290    -0.0180    -0.0090 ca         1 5WX       0.223100
      4 CAL         -0.2700    -0.0940    -0.0110 ca         1 5WX      -0.310900
      5 CAI         -1.2470    -1.1460    -0.0250 cc         1 5WX       0.608800
      6 NAB         -1.0060    -2.4790    -0.1040 nv         1 5WX      -0.877800
      7 NAF         -2.4540    -0.6520    -0.0110 nd         1 5WX      -0.488200
      8 OAH         -2.3330     0.7340    -0.0000 os         1 5WX      -0.014600
      9 CAK         -1.0380     1.0570     0.0050 ca         1 5WX       0.137100
     10 CAE         -0.4940     2.3370     0.0230 ca         1 5WX      -0.184000
     11 CAC          0.8870     2.3910     0.0240 ca         1 5WX      -0.041000
     12 CAD          1.6990     1.2470     0.0090 ca         1 5WX      -0.267000
     13 H1           3.5940    -0.6510     0.8910 h1         1 5WX       0.046700
     14 H2           3.5480    -2.1740    -0.0200 h1         1 5WX       0.046700
     15 H3           3.6110    -0.6270    -0.8880 h1         1 5WX       0.046700
     16 H4          -0.1200    -2.7960     0.2530 hn         1 5WX       0.419800
     17 H5          -1.7740    -3.0850     0.1370 hn         1 5WX       0.419800
     18 H6          -1.1060     3.2280     0.0360 ha         1 5WX       0.158000
     19 H7           1.3730     3.3580     0.0390 ha         1 5WX       0.133000
     20 H8           2.7720     1.3750     0.0110 ha         1 5WX       0.139000
@<TRIPOS>BOND
     1     1     2 1   
     2     1    13 1   
     3     1    14 1   
     4     1    15 1   
     5     2     3 1   
     6     3     4 ar  
     7     3    12 ar  
     8     4     5 1   
     9     4     9 ar  
    10     5     6 1   
    11     5     7 2   
    12     6    16 1   
    13     6    17 1   
    14     7     8 1   
    15     8     9 1   
    16     9    10 ar  
    17    10    11 ar  
    18    10    18 1   
    19    11    12 ar  
    20    11    19 1   
    21    12    20 1   
@<TRIPOS>SUBSTRUCTURE
     1 5WX         1 TEMP              0 ****  ****    0 ROOT
