@<TRIPOS>MOLECULE
5WY
   22    23     1     0     0
SMALL
No Charge or Current Charge


@<TRIPOS>ATOM
      1 CAE          8.1470    -5.6960    32.2570 ca         1 5WY      -0.060000
      2 CAC          6.8400    -5.1960    32.1410 ca         1 5WY      -0.120000
      3 CAD          6.2990    -4.3970    33.1560 ca         1 5WY      -0.085000
      4 CAK          7.0640    -4.0980    34.2910 ca         1 5WY       0.045100
      5 OAH          6.5070    -3.2890    35.2640 os         1 5WY      -0.338100
      6 CAF          7.3900    -2.7350    36.2610 c6         1 5WY       0.121600
      7 CAG          8.3850    -3.8150    36.7230 c6         1 5WY       0.124600
      8 OAI          9.1000    -4.3350    35.5820 os         1 5WY      -0.364100
      9 CAM          8.3810    -4.6200    34.4320 ca         1 5WY       0.088100
     10 CAL          8.9420    -5.4210    33.3970 ca         1 5WY      -0.143600
     11 CAJ         10.3430    -6.0080    33.4450 c          1 5WY       0.615700
     12 OAB         10.7920    -6.7040    32.5490 o          1 5WY      -0.625100
     13 NAA         11.1300    -5.7580    34.5090 nt         1 5WY      -0.600000
     14 H1           8.5420    -6.3090    31.4490 ha         1 5WY       0.148000
     15 H2           6.2490    -5.4240    31.2560 ha         1 5WY       0.125000
     16 H3           5.2900    -4.0010    33.0610 ha         1 5WY       0.131000
     17 H4           7.9420    -1.8910    35.8230 h1         1 5WY       0.071200
     18 H5           6.7980    -2.3610    37.1080 h1         1 5WY       0.071200
     19 H6           7.8380    -4.6350    37.2090 h1         1 5WY       0.071200
     20 H7           9.1010    -3.4000    37.4460 h1         1 5WY       0.071200
     21 H8          12.0600    -6.1450    34.5450 hn         1 5WY       0.325500
     22 H9          10.7700    -5.1840    35.2580 hn         1 5WY       0.325500
@<TRIPOS>BOND
     1     1     2 ar  
     2     1    10 ar  
     3     1    14 1   
     4     2     3 ar  
     5     2    15 1   
     6     3     4 ar  
     7     3    16 1   
     8     4     5 1   
     9     4     9 ar  
    10     5     6 1   
    11     6     7 1   
    12     6    17 1   
    13     6    18 1   
    14     7     8 1   
    15     7    19 1   
    16     7    20 1   
    17     8     9 1   
    18     9    10 ar  
    19    10    11 1   
    20    11    12 2   
    21    11    13 1   
    22    13    21 1   
    23    13    22 1   
@<TRIPOS>SUBSTRUCTURE
     1 5WY         1 TEMP              0 ****  ****    0 ROOT
