@<TRIPOS>MOLECULE
5WY
   22    23     1     0     0
SMALL
abcg2


@<TRIPOS>ATOM
      1 CAE          8.1600    -5.6700    32.3000 ca         1 5WY      -0.060000
      2 CAC          6.8640    -5.1950    32.1810 ca         1 5WY      -0.120000
      3 CAD          6.3230    -4.4040    33.1860 ca         1 5WY      -0.085000
      4 CAK          7.0760    -4.0960    34.3090 ca         1 5WY       0.045100
      5 OAH          6.4940    -3.3100    35.2650 os         1 5WY      -0.338100
      6 CAF          7.4030    -2.7530    36.2240 c6         1 5WY       0.121600
      7 CAG          8.3640    -3.8160    36.6860 c6         1 5WY       0.124600
      8 OAI          9.1170    -4.3000    35.5610 os         1 5WY      -0.364100
      9 CAM          8.3830    -4.5940    34.4470 ca         1 5WY       0.088100
     10 CAL          8.9390    -5.3860    33.4260 ca         1 5WY      -0.143600
     11 CAJ         10.3220    -5.9800    33.4410 c          1 5WY       0.615700
     12 OAB         10.7240    -6.6490    32.4840 o          1 5WY      -0.625100
     13 NAA         11.1000    -5.7640    34.5180 nt         1 5WY      -0.600000
     14 H1           8.5990    -6.2800    31.5260 ha         1 5WY       0.148000
     15 H2           6.2760    -5.4310    31.3040 ha         1 5WY       0.125000
     16 H3           5.3190    -4.0080    33.1140 ha         1 5WY       0.131000
     17 H4           7.9440    -1.9190    35.7690 h1         1 5WY       0.071200
     18 H5           6.7970    -2.3860    37.0500 h1         1 5WY       0.071200
     19 H6           7.8280    -4.6530    37.1410 h1         1 5WY       0.071200
     20 H7           9.0910    -3.4180    37.3900 h1         1 5WY       0.071200
     21 H8          12.0190    -6.1770    34.5330 hn         1 5WY       0.325500
     22 H9          10.7700    -5.2320    35.3070 hn         1 5WY       0.325500
@<TRIPOS>BOND
     1     1     2 ar  
     2     1    10 ar  
     3     1    14 1   
     4     2     3 ar  
     5     2    15 1   
     6     3     4 ar  
     7     3    16 1   
     8     4     5 1   
     9     4     9 ar  
    10     5     6 1   
    11     6     7 1   
    12     6    17 1   
    13     6    18 1   
    14     7     8 1   
    15     7    19 1   
    16     7    20 1   
    17     8     9 1   
    18     9    10 ar  
    19    10    11 1   
    20    11    12 2   
    21    11    13 1   
    22    13    21 1   
    23    13    22 1   
@<TRIPOS>SUBSTRUCTURE
     1 5WY         1 TEMP              0 ****  ****    0 ROOT
