@<TRIPOS>MOLECULE
5WZ
   28    29     1     0     0
SMALL
No Charge or Current Charge


@<TRIPOS>ATOM
      1 C4           2.2330    -1.0360     0.5470 c6         1 5WZ      -0.102900
      2 C5          -1.5090    -0.7100    -0.3430 c          1 5WZ       0.638100
      3 C6          -2.4710     0.4290    -0.6330 cx         1 5WZ      -0.238700
      4 N1          -0.1530    -0.3570    -0.1340 n          1 5WZ      -0.400800
      5 C7          -2.9500     1.2870     0.5230 cx         1 5WZ      -0.100900
      6 C8          -3.9050     0.3290    -0.1470 cx         1 5WZ      -0.100900
      7 O           -1.8920    -1.8730    -0.2990 o          1 5WZ      -0.612100
      8 C2           0.3560     1.0140    -0.4650 c6         1 5WZ       0.096500
      9 C1           1.7340     1.3740     0.1360 c6         1 5WZ      -0.102900
     10 C3           0.8710    -1.4450    -0.0570 c6         1 5WZ       0.096500
     11 C            2.7600     0.2550    -0.0950 c6         1 5WZ       0.165500
     12 N            4.0660     0.6230     0.4760 n8         1 5WZ      -0.994200
     13 H1           2.1200    -0.8960     1.6310 hc         1 5WZ       0.056950
     14 H2           2.9520    -1.8550     0.4100 hc         1 5WZ       0.056950
     15 H3          -2.3220     0.9200    -1.5900 hc         1 5WZ       0.085700
     16 H4          -2.6030     1.0390     1.5240 hc         1 5WZ       0.080450
     17 H5          -3.0890     2.3510     0.3420 hc         1 5WZ       0.080450
     18 H6          -4.6850     0.7500    -0.7770 hc         1 5WZ       0.080450
     19 H7          -4.2040    -0.5560     0.4120 hc         1 5WZ       0.080450
     20 H8           0.4170     1.0980    -1.5590 h1         1 5WZ       0.055700
     21 H9          -0.3570     1.7780    -0.1250 h1         1 5WZ       0.055700
     22 H10          2.0880     2.3160    -0.3040 hc         1 5WZ       0.056950
     23 H11          1.6190     1.5560     1.2140 hc         1 5WZ       0.056950
     24 H12          1.0380    -1.8240    -1.0750 h1         1 5WZ       0.055700
     25 H13          0.4730    -2.2840     0.5330 h1         1 5WZ       0.055700
     26 H14          2.9030     0.1010    -1.1750 h1         1 5WZ       0.010700
     27 H15          4.7440    -0.1110     0.2420 hn         1 5WZ       0.394000
     28 H16          4.4230     1.4450    -0.0250 hn         1 5WZ       0.394000
@<TRIPOS>BOND
     1     1    10 1   
     2     1    11 1   
     3     1    13 1   
     4     1    14 1   
     5     2     3 1   
     6     2     4 1   
     7     2     7 2   
     8     3     5 1   
     9     3     6 1   
    10     3    15 1   
    11     4     8 1   
    12     4    10 1   
    13     5     6 1   
    14     5    16 1   
    15     5    17 1   
    16     6    18 1   
    17     6    19 1   
    18     8     9 1   
    19     8    20 1   
    20     8    21 1   
    21     9    11 1   
    22     9    22 1   
    23     9    23 1   
    24    10    24 1   
    25    10    25 1   
    26    11    12 1   
    27    11    26 1   
    28    12    27 1   
    29    12    28 1   
@<TRIPOS>SUBSTRUCTURE
     1 5WZ         1 TEMP              0 ****  ****    0 ROOT
