@<TRIPOS>MOLECULE
5WZ
   28    29     1     0     0
SMALL
abcg2


@<TRIPOS>ATOM
      1 C4           2.0050    -1.0110     0.4730 c6         1 5WZ      -0.102900
      2 C5          -1.2930    -0.4810    -0.0110 c          1 5WZ       0.638100
      3 C6          -2.2580     0.6410    -0.2030 cx         1 5WZ      -0.238700
      4 N1          -0.0980    -0.4190    -0.6430 n          1 5WZ      -0.400800
      5 C7          -2.9410     1.1760     1.0330 cx         1 5WZ      -0.100900
      6 C8          -3.7130     0.3620     0.0610 cx         1 5WZ      -0.100900
      7 O           -1.6020    -1.4370     0.6930 o          1 5WZ      -0.612100
      8 C2           0.4940     0.7710    -1.2330 c6         1 5WZ       0.096500
      9 C1           1.6060     1.3120    -0.3400 c6         1 5WZ      -0.102900
     10 C3           0.8810    -1.4770    -0.4450 c6         1 5WZ       0.096500
     11 C            2.6660     0.2480    -0.0760 c6         1 5WZ       0.165500
     12 N            3.6510     0.7480     0.8700 n8         1 5WZ      -0.994200
     13 H1           1.6070    -0.8100     1.4720 hc         1 5WZ       0.056950
     14 H2           2.7420    -1.8120     0.5730 hc         1 5WZ       0.056950
     15 H3          -2.0660     1.3670    -0.9790 hc         1 5WZ       0.085700
     16 H4          -2.6750     0.7250     1.9800 hc         1 5WZ       0.080450
     17 H5          -3.1150     2.2430     1.0740 hc         1 5WZ       0.080450
     18 H6          -4.4220     0.8670    -0.5820 hc         1 5WZ       0.080450
     19 H7          -3.9870    -0.6460     0.3400 hc         1 5WZ       0.080450
     20 H8           0.9010     0.5020    -2.2120 h1         1 5WZ       0.055700
     21 H9          -0.2520     1.5400    -1.4060 h1         1 5WZ       0.055700
     22 H10          2.0550     2.1870    -0.8180 hc         1 5WZ       0.056950
     23 H11          1.1790     1.6440     0.6120 hc         1 5WZ       0.056950
     24 H12          1.2910    -1.7430    -1.4250 h1         1 5WZ       0.055700
     25 H13          0.3920    -2.3620    -0.0490 h1         1 5WZ       0.055700
     26 H14          3.1130    -0.0160    -1.0500 h1         1 5WZ       0.010700
     27 H15          4.3710     0.0480     1.0060 hn         1 5WZ       0.394000
     28 H16          4.1270     1.5480     0.4700 hn         1 5WZ       0.394000
@<TRIPOS>BOND
     1     1    10 1   
     2     1    11 1   
     3     1    13 1   
     4     1    14 1   
     5     2     3 1   
     6     2     4 1   
     7     2     7 2   
     8     3     5 1   
     9     3     6 1   
    10     3    15 1   
    11     4     8 1   
    12     4    10 1   
    13     5     6 1   
    14     5    16 1   
    15     5    17 1   
    16     6    18 1   
    17     6    19 1   
    18     8     9 1   
    19     8    20 1   
    20     8    21 1   
    21     9    11 1   
    22     9    22 1   
    23     9    23 1   
    24    10    24 1   
    25    10    25 1   
    26    11    12 1   
    27    11    26 1   
    28    12    27 1   
    29    12    28 1   
@<TRIPOS>SUBSTRUCTURE
     1 5WZ         1 TEMP              0 ****  ****    0 ROOT
