@<TRIPOS>MOLECULE
5X0
   52    54     1     0     0
SMALL
abcg2


@<TRIPOS>ATOM
      1 CAN         -4.6860    -1.9800    -1.0570 c6         1 5X0      -0.130900
      2 CAL         -5.5680    -3.1970    -0.8000 c6         1 5X0       0.155600
      3 OAS         -6.8380    -2.8350    -0.3060 os         1 5X0      -0.444000
      4 CAM         -6.7480    -2.1200     0.9060 c6         1 5X0       0.155600
      5 CAO         -5.9440    -0.8380     0.7530 c6         1 5X0      -0.130900
      6 CBB         -4.5590    -1.1680     0.2250 c6         1 5X0       0.180300
      7 OAU         -3.8820     0.0640     0.0200 os         1 5X0      -0.332100
      8 CAZ         -2.5380     0.1060    -0.0570 ca         1 5X0       0.160100
      9 CBA         -1.9740     1.3770    -0.2300 ca         1 5X0      -0.153600
     10 CAK         -0.6010     1.5360    -0.2630 ca         1 5X0      -0.077000
     11 CAW         -2.8600     2.5730    -0.4110 c          1 5X0       0.622700
     12 OAC         -3.6070     2.6900    -1.3710 o          1 5X0      -0.580100
     13 NAQ         -2.7340     3.5020     0.5440 ns         1 5X0      -0.505900
     14 CAA         -3.4760     4.7400     0.5270 c3         1 5X0       0.096300
     15 CAJ         -1.6890    -0.9840     0.0650 ca         1 5X0      -0.173000
     16 CAI         -0.3060    -0.8230     0.0170 ca         1 5X0      -0.145000
     17 CAY          0.2480     0.4360    -0.1500 ca         1 5X0       0.093100
     18 OAT          1.5740     0.7020    -0.2130 os         1 5X0      -0.309100
     19 CAP          2.4680    -0.3660    -0.0940 c3         1 5X0       0.075600
     20 CAV          3.8720     0.1940    -0.2650 c          1 5X0       0.608100
     21 OAB          4.0770     1.3100    -0.6920 o          1 5X0      -0.540100
     22 NAR          4.8280    -0.6980     0.0860 ns         1 5X0      -0.151000
     23 CAX          6.2210    -0.5690     0.0400 ca         1 5X0      -0.021000
     24 CAG          6.8930     0.5990    -0.3250 ca         1 5X0      -0.149000
     25 CAE          8.2820     0.6180    -0.3260 ca         1 5X0      -0.083000
     26 CAD          9.0210    -0.5010     0.0260 ca         1 5X0      -0.134000
     27 CAF          8.3490    -1.6620     0.3870 ca         1 5X0      -0.083000
     28 CAH          6.9660    -1.6980     0.3930 ca         1 5X0      -0.149000
     29 H1          -3.7150    -2.3180    -1.4250 hc         1 5X0       0.067700
     30 H2          -5.1310    -1.3570    -1.8370 hc         1 5X0       0.067700
     31 H3          -5.7280    -3.7500    -1.7260 h1         1 5X0       0.045950
     32 H4          -5.0620    -3.8740    -0.0950 h1         1 5X0       0.045950
     33 H5          -7.7680    -1.8950     1.2220 h1         1 5X0       0.045950
     34 H6          -6.2930    -2.7490     1.6870 h1         1 5X0       0.045950
     35 H7          -6.4520    -0.1600     0.0610 hc         1 5X0       0.067700
     36 H8          -5.8760    -0.3360     1.7220 hc         1 5X0       0.067700
     37 H9          -4.0350    -1.7630     0.9850 h1         1 5X0       0.037700
     38 H10         -0.1770     2.5260    -0.3900 ha         1 5X0       0.141000
     39 H11         -2.1480     3.3010     1.3370 hn         1 5X0       0.317500
     40 H12         -3.3200     5.2810    -0.4060 h1         1 5X0       0.039700
     41 H13         -4.5470     4.5750     0.6520 h1         1 5X0       0.039700
     42 H14         -3.1280     5.3620     1.3470 h1         1 5X0       0.039700
     43 H15         -2.0740    -1.9850     0.2090 ha         1 5X0       0.120000
     44 H16          0.3110    -1.7060     0.1140 ha         1 5X0       0.113000
     45 H17          2.3770    -0.8680     0.8780 h1         1 5X0       0.048700
     46 H18          2.3000    -1.1270    -0.8680 h1         1 5X0       0.048700
     47 H19          4.5030    -1.5870     0.4390 hn         1 5X0       0.147000
     48 H20          6.3530     1.4870    -0.6080 ha         1 5X0       0.127000
     49 H21          8.7870     1.5320    -0.6120 ha         1 5X0       0.114500
     50 H22         10.1020    -0.4700     0.0210 ha         1 5X0       0.117000
     51 H23          8.9030    -2.5490     0.6670 ha         1 5X0       0.114500
     52 H24          6.4550    -2.6120     0.6760 ha         1 5X0       0.127000
@<TRIPOS>BOND
     1     1     2 1   
     2     1     6 1   
     3     1    29 1   
     4     1    30 1   
     5     2     3 1   
     6     2    31 1   
     7     2    32 1   
     8     3     4 1   
     9     4     5 1   
    10     4    33 1   
    11     4    34 1   
    12     5     6 1   
    13     5    35 1   
    14     5    36 1   
    15     6     7 1   
    16     6    37 1   
    17     7     8 1   
    18     8     9 ar  
    19     8    15 ar  
    20     9    10 ar  
    21     9    11 1   
    22    10    17 ar  
    23    10    38 1   
    24    11    12 2   
    25    11    13 1   
    26    13    14 1   
    27    13    39 1   
    28    14    40 1   
    29    14    41 1   
    30    14    42 1   
    31    15    16 ar  
    32    15    43 1   
    33    16    17 ar  
    34    16    44 1   
    35    17    18 1   
    36    18    19 1   
    37    19    20 1   
    38    19    45 1   
    39    19    46 1   
    40    20    21 2   
    41    20    22 1   
    42    22    23 1   
    43    22    47 1   
    44    23    24 ar  
    45    23    28 ar  
    46    24    25 ar  
    47    24    48 1   
    48    25    26 ar  
    49    25    49 1   
    50    26    27 ar  
    51    26    50 1   
    52    27    28 ar  
    53    27    51 1   
    54    28    52 1   
@<TRIPOS>SUBSTRUCTURE
     1 5X0         1 TEMP              0 ****  ****    0 ROOT
