@<TRIPOS>MOLECULE
5X0
   52    54     1     0     0
SMALL
No Charge or Current Charge


@<TRIPOS>ATOM
      1 CAN         -4.5850    -1.9170    -1.0260 c6         1 5X0      -0.130900
      2 CAL         -5.4020    -3.2240    -1.1310 c6         1 5X0       0.155600
      3 OAS         -6.7660    -2.9810    -0.7280 os         1 5X0      -0.444000
      4 CAM         -6.9030    -2.5380     0.6380 c6         1 5X0       0.155600
      5 CAO         -6.1600    -1.1970     0.8280 c6         1 5X0      -0.130900
      6 CBB         -4.6770    -1.3340     0.4110 c6         1 5X0       0.180300
      7 OAU         -4.0450    -0.0380     0.4890 os         1 5X0      -0.332100
      8 CAZ         -2.6800     0.1440     0.3390 ca         1 5X0       0.160100
      9 CBA         -2.1820     1.4490     0.0910 ca         1 5X0      -0.153600
     10 CAK         -0.7800     1.6350    -0.0120 ca         1 5X0      -0.077000
     11 CAW         -3.1160     2.6320    -0.0830 c          1 5X0       0.622700
     12 OAC         -4.2660     2.5380    -0.4910 o          1 5X0      -0.580100
     13 NAQ         -2.5700     3.8700     0.1890 ns         1 5X0      -0.505900
     14 CAA         -3.2860     5.1390     0.0490 c3         1 5X0       0.096300
     15 CAJ         -1.7720    -0.9320     0.4940 ca         1 5X0      -0.173000
     16 CAI         -0.3880    -0.7270     0.3870 ca         1 5X0      -0.145000
     17 CAY          0.1130     0.5630     0.1310 ca         1 5X0       0.093100
     18 OAT          1.4630     0.8250     0.0090 os         1 5X0      -0.309100
     19 CAP          2.4670    -0.2090     0.1360 c3         1 5X0       0.075600
     20 CAV          3.9020     0.3370    -0.0420 c          1 5X0       0.608100
     21 OAB          4.1400     1.5210    -0.2650 o          1 5X0      -0.540100
     22 NAR          4.8800    -0.6450     0.0770 ns         1 5X0      -0.151000
     23 CAX          6.3000    -0.6050    -0.0110 ca         1 5X0      -0.021000
     24 CAG          7.0380     0.5730    -0.2650 ca         1 5X0      -0.149000
     25 CAE          8.4420     0.5310    -0.3370 ca         1 5X0      -0.083000
     26 CAD          9.1220    -0.6840    -0.1570 ca         1 5X0      -0.134000
     27 CAF          8.3980    -1.8590     0.0950 ca         1 5X0      -0.083000
     28 CAH          6.9950    -1.8170     0.1680 ca         1 5X0      -0.149000
     29 H1          -3.5410    -2.1170    -1.3000 hc         1 5X0       0.067700
     30 H2          -4.9670    -1.1860    -1.7510 hc         1 5X0       0.067700
     31 H3          -5.3950    -3.5900    -2.1680 h1         1 5X0       0.045950
     32 H4          -4.9650    -4.0030    -0.4900 h1         1 5X0       0.045950
     33 H5          -7.9710    -2.4130     0.8690 h1         1 5X0       0.045950
     34 H6          -6.4940    -3.3040     1.3130 h1         1 5X0       0.045950
     35 H7          -6.6490    -0.4180     0.2290 hc         1 5X0       0.067700
     36 H8          -6.2260    -0.8800     1.8780 hc         1 5X0       0.067700
     37 H9          -4.1960    -2.0170     1.1240 h1         1 5X0       0.037700
     38 H10         -0.3600     2.6140    -0.2310 ha         1 5X0       0.141000
     39 H11         -1.6220     3.8850     0.5440 hn         1 5X0       0.317500
     40 H12         -3.6010     5.2730    -0.9940 h1         1 5X0       0.039700
     41 H13         -4.1700     5.1390     0.7010 h1         1 5X0       0.039700
     42 H14         -2.6250     5.9670     0.3360 h1         1 5X0       0.039700
     43 H15         -2.1180    -1.9370     0.7110 ha         1 5X0       0.120000
     44 H16          0.2760    -1.5780     0.5110 ha         1 5X0       0.113000
     45 H17          2.4140    -0.6790     1.1270 h1         1 5X0       0.048700
     46 H18          2.3150    -0.9890    -0.6200 h1         1 5X0       0.048700
     47 H19          4.5130    -1.5700     0.2620 hn         1 5X0       0.147000
     48 H20          6.5490     1.5300    -0.4090 ha         1 5X0       0.127000
     49 H21          9.0030     1.4420    -0.5330 ha         1 5X0       0.114500
     50 H22         10.2080    -0.7150    -0.2140 ha         1 5X0       0.117000
     51 H23          8.9230    -2.8020     0.2350 ha         1 5X0       0.114500
     52 H24          6.4460    -2.7360     0.3640 ha         1 5X0       0.127000
@<TRIPOS>BOND
     1     1     2 1   
     2     1     6 1   
     3     1    29 1   
     4     1    30 1   
     5     2     3 1   
     6     2    31 1   
     7     2    32 1   
     8     3     4 1   
     9     4     5 1   
    10     4    33 1   
    11     4    34 1   
    12     5     6 1   
    13     5    35 1   
    14     5    36 1   
    15     6     7 1   
    16     6    37 1   
    17     7     8 1   
    18     8     9 ar  
    19     8    15 ar  
    20     9    10 ar  
    21     9    11 1   
    22    10    17 ar  
    23    10    38 1   
    24    11    12 2   
    25    11    13 1   
    26    13    14 1   
    27    13    39 1   
    28    14    40 1   
    29    14    41 1   
    30    14    42 1   
    31    15    16 ar  
    32    15    43 1   
    33    16    17 ar  
    34    16    44 1   
    35    17    18 1   
    36    18    19 1   
    37    19    20 1   
    38    19    45 1   
    39    19    46 1   
    40    20    21 2   
    41    20    22 1   
    42    22    23 1   
    43    22    47 1   
    44    23    24 ar  
    45    23    28 ar  
    46    24    25 ar  
    47    24    48 1   
    48    25    26 ar  
    49    25    49 1   
    50    26    27 ar  
    51    26    50 1   
    52    27    28 ar  
    53    27    51 1   
    54    28    52 1   
@<TRIPOS>SUBSTRUCTURE
     1 5X0         1 TEMP              0 ****  ****    0 ROOT
