@<TRIPOS>MOLECULE
5X1
   69    73     1     0     0
SMALL
No Charge or Current Charge


@<TRIPOS>ATOM
      1 CAA          1.7830   -23.0170   -31.0140 c3         1 5X1       0.346300
      2 CAB          7.1010   -12.2290   -27.2470 c3         1 5X1      -0.083100
      3 CAC         11.4120   -23.2280   -31.8890 c3         1 5X1       0.152100
      4 CAE          7.0160   -16.4290   -28.8760 ca         1 5X1      -0.160000
      5 CAF          7.5040   -15.3110   -28.1840 ca         1 5X1      -0.076000
      6 CAG          2.7690   -10.8820   -22.8830 ca         1 5X1       0.062900
      7 CAH          4.6910   -11.2000   -24.0980 ca         1 5X1       0.033900
      8 CAI          3.1150   -12.9780   -23.7540 ca         1 5X1       0.033900
      9 CAJ          3.9300   -22.1660   -32.1140 ca         1 5X1      -0.038000
     10 CAK          3.0770   -20.9880   -30.1630 ca         1 5X1      -0.008000
     11 CAL          5.1150   -20.2240   -31.2500 ca         1 5X1      -0.039000
     12 CAM          5.0200   -16.4160   -27.4970 ca         1 5X1      -0.130000
     13 CAN          9.0000   -23.0590   -31.3530 c6         1 5X1       0.163300
     14 CAO          9.9150   -21.7830   -33.2330 c6         1 5X1       0.163300
     15 CAP          7.5590   -22.8730   -31.9280 c6         1 5X1       0.163300
     16 CAQ          8.4740   -21.5980   -33.8090 c6         1 5X1       0.163300
     17 CAR          6.0630   -21.4150   -33.2800 c3         1 5X1       0.213100
     18 CAS          4.6390   -14.6970   -25.6640 c6         1 5X1       0.255100
     19 CAT          6.6520   -13.3800   -24.9910 c6         1 5X1       0.220800
     20 CAX          4.2470   -18.9700   -29.1830 c          1 5X1       0.619700
     21 CAY          2.9520   -22.0300   -31.1070 ca         1 5X1      -0.200300
     22 CAZ          5.0060   -21.2650   -32.1890 ca         1 5X1      -0.094300
     23 NAU          3.9110   -10.3630   -23.3810 nb         1 5X1      -0.143000
     24 NAV          2.3300   -12.1480   -23.0340 nb         1 5X1      -0.143000
     25 NAW          5.3490   -18.1280   -29.2910 ns         1 5X1      -0.138000
     26 OAD          3.3930   -18.8520   -28.3110 o          1 5X1      -0.580100
     27 CBA          5.7740   -16.9970   -28.5410 ca         1 5X1      -0.019000
     28 CBB          4.1530   -20.0740   -30.2210 ca         1 5X1      -0.163600
     29 CBC          5.5010   -15.2920   -26.7950 ca         1 5X1      -0.056300
     30 CBD          4.3420   -12.5530   -24.3210 ca         1 5X1       0.229000
     31 CBE          6.7550   -14.7380   -27.1410 ca         1 5X1      -0.089300
     32 CBF          7.2950   -13.5140   -26.3940 c6         1 5X1      -0.019400
     33 NBG         10.0470   -23.0310   -32.4210 n3         1 5X1      -0.721600
     34 NBH          7.4270   -21.6230   -32.7420 n3         1 5X1      -0.729600
     35 NBI          5.1670   -13.4270   -25.0870 nh         1 5X1      -0.805400
     36 F01          0.6500   -22.4270   -30.5690 f          1 5X1      -0.110333
     37 F02          2.0630   -24.0290   -30.1630 f          1 5X1      -0.110333
     38 F03          1.4810   -23.5770   -32.2080 f          1 5X1      -0.110333
     39 H2           7.6190   -12.3110   -28.2100 hc         1 5X1       0.041367
     40 H3           6.0400   -12.0440   -27.4550 hc         1 5X1       0.041367
     41 H4          11.4820   -24.1780   -31.3420 h1         1 5X1       0.032700
     42 H5          12.1460   -23.2530   -32.7050 h1         1 5X1       0.032700
     43 H6          11.6870   -22.4150   -31.2030 h1         1 5X1       0.032700
     44 H7           7.6110   -16.8580   -29.6800 ha         1 5X1       0.112000
     45 H8           8.4680   -14.8870   -28.4590 ha         1 5X1       0.115000
     46 H9           2.1380   -10.2100   -22.3040 h5         1 5X1       0.051100
     47 H10          5.6010   -10.7680   -24.5090 h4         1 5X1       0.023100
     48 H11          2.7530   -13.9980   -23.8650 h4         1 5X1       0.023100
     49 H12          3.8600   -22.9740   -32.8390 ha         1 5X1       0.133000
     50 H13          2.3320   -20.8910   -29.3750 ha         1 5X1       0.154000
     51 H14          5.9630   -19.5490   -31.3350 ha         1 5X1       0.130000
     52 H15          4.0530   -16.8190   -27.2150 ha         1 5X1       0.151000
     53 H16          9.0390   -24.0120   -30.8060 h1         1 5X1       0.040200
     54 H17          9.1870   -22.2600   -30.6200 h1         1 5X1       0.040200
     55 H18         10.6290   -21.7960   -34.0700 h1         1 5X1       0.040200
     56 H19         10.1600   -20.9040   -32.6170 h1         1 5X1       0.040200
     57 H20          6.8510   -22.8620   -31.0860 h1         1 5X1       0.041200
     58 H21          7.3110   -23.7510   -32.5420 h1         1 5X1       0.041200
     59 H22          8.4370   -20.6450   -34.3570 h1         1 5X1       0.041200
     60 H23          8.2870   -22.3970   -34.5420 h1         1 5X1       0.041200
     61 H24          6.0420   -20.5040   -33.8940 h1         1 5X1       0.043700
     62 H25          5.7890   -22.2490   -33.9410 h1         1 5X1       0.043700
     63 H26          3.6310   -14.5240   -26.0710 h1         1 5X1       0.055700
     64 H27          4.5420   -15.4520   -24.8710 h1         1 5X1       0.055700
     65 H28          7.0040   -14.2090   -24.3580 h1         1 5X1       0.048200
     66 H29          7.0030   -12.4530   -24.5170 h1         1 5X1       0.048200
     67 H30          5.9720   -18.3620   -30.0510 hn         1 5X1       0.154000
     68 H31          8.3780   -13.6290   -26.2540 hc         1 5X1       0.057700
     69 H1           7.4990   -11.3470   -26.7310 hc         1 5X1       0.041367
@<TRIPOS>BOND
     1     1    21 1   
     2     1    36 1   
     3     1    37 1   
     4     1    38 1   
     5     2    32 1   
     6     2    39 1   
     7     2    40 1   
     8     2    69 1   
     9     3    33 1   
    10     3    41 1   
    11     3    42 1   
    12     3    43 1   
    13     4     5 ar  
    14     4    27 ar  
    15     4    44 1   
    16     5    31 ar  
    17     5    45 1   
    18     6    23 ar  
    19     6    24 ar  
    20     6    46 1   
    21     7    23 ar  
    22     7    30 ar  
    23     7    47 1   
    24     8    24 ar  
    25     8    30 ar  
    26     8    48 1   
    27     9    21 ar  
    28     9    22 ar  
    29     9    49 1   
    30    10    21 ar  
    31    10    28 ar  
    32    10    50 1   
    33    11    22 ar  
    34    11    28 ar  
    35    11    51 1   
    36    12    27 ar  
    37    12    29 ar  
    38    12    52 1   
    39    13    15 1   
    40    13    33 1   
    41    13    53 1   
    42    13    54 1   
    43    14    16 1   
    44    14    33 1   
    45    14    55 1   
    46    14    56 1   
    47    15    34 1   
    48    15    57 1   
    49    15    58 1   
    50    16    34 1   
    51    16    59 1   
    52    16    60 1   
    53    17    22 1   
    54    17    34 1   
    55    17    61 1   
    56    17    62 1   
    57    18    29 1   
    58    18    35 1   
    59    18    63 1   
    60    18    64 1   
    61    19    32 1   
    62    19    35 1   
    63    19    65 1   
    64    19    66 1   
    65    20    25 1   
    66    20    26 2   
    67    20    28 1   
    68    25    27 1   
    69    25    67 1   
    70    29    31 ar  
    71    30    35 1   
    72    31    32 1   
    73    32    68 1   
@<TRIPOS>SUBSTRUCTURE
     1 5X1         1 TEMP              0 ****  ****    0 ROOT
