@<TRIPOS>MOLECULE
5X1
   69    73     1     0     0
SMALL
abcg2


@<TRIPOS>ATOM
      1 CAA          1.7710   -22.2650   -31.3080 c3         1 5X1       0.346300
      2 CAB          5.8920   -11.6450   -27.5940 c3         1 5X1      -0.083100
      3 CAC         11.0950   -23.9330   -31.2170 c3         1 5X1       0.152100
      4 CAE          6.5460   -15.5690   -29.6650 ca         1 5X1      -0.160000
      5 CAF          6.8690   -14.3830   -29.0340 ca         1 5X1      -0.076000
      6 CAG          3.2290   -12.1640   -21.9780 ca         1 5X1       0.062900
      7 CAH          4.7210   -11.7230   -23.6400 ca         1 5X1       0.033900
      8 CAI          3.7890   -13.8810   -23.3620 ca         1 5X1       0.033900
      9 CAJ          4.0670   -21.8490   -32.2320 ca         1 5X1      -0.038000
     10 CAK          3.2650   -20.4950   -30.4000 ca         1 5X1      -0.008000
     11 CAL          5.4690   -20.1400   -31.3010 ca         1 5X1      -0.039000
     12 CAM          5.3250   -16.2620   -27.7090 ca         1 5X1      -0.130000
     13 CAN          8.7320   -23.5130   -31.0140 c6         1 5X1       0.163300
     14 CAO         10.0160   -22.3220   -32.6460 c6         1 5X1       0.163300
     15 CAP          7.4590   -23.1770   -31.7700 c6         1 5X1       0.163300
     16 CAQ          8.7440   -21.9870   -33.4050 c6         1 5X1       0.163300
     17 CAR          6.3830   -21.5320   -33.1840 c3         1 5X1       0.213100
     18 CAS          5.1320   -14.8450   -25.6800 c6         1 5X1       0.255100
     19 CAT          6.6490   -12.9400   -25.5590 c6         1 5X1       0.220800
     20 CAX          4.6250   -18.7160   -29.3640 c          1 5X1       0.619700
     21 CAY          3.0640   -21.5040   -31.3280 ca         1 5X1      -0.200300
     22 CAZ          5.2790   -21.1700   -32.2220 ca         1 5X1      -0.094300
     23 NAU          4.0230   -11.2880   -22.5970 nb         1 5X1      -0.143000
     24 NAV          3.0850   -13.4400   -22.3200 nb         1 5X1      -0.143000
     25 NAW          5.4500   -17.6960   -29.7160 ns         1 5X1      -0.138000
     26 OAD          4.0140   -18.7700   -28.2990 o          1 5X1      -0.580100
     27 CBA          5.7600   -16.5220   -29.0050 ca         1 5X1      -0.019000
     28 CBB          4.4720   -19.7980   -30.3910 ca         1 5X1      -0.163600
     29 CBC          5.6520   -15.0570   -27.0830 ca         1 5X1      -0.056300
     30 CBD          4.6540   -13.0520   -24.1020 ca         1 5X1       0.229000
     31 CBE          6.4260   -14.1020   -27.7380 ca         1 5X1      -0.089300
     32 CBF          6.7690   -12.7900   -27.0730 c6         1 5X1      -0.019400
     33 NBG          9.8730   -23.5800   -31.9210 n3         1 5X1      -0.721600
     34 NBH          7.6080   -21.9160   -32.4920 n3         1 5X1      -0.729600
     35 NBI          5.3400   -13.4870   -25.2100 nh         1 5X1      -0.805400
     36 F01          0.7210   -21.4860   -30.9700 f          1 5X1      -0.110333
     37 F02          1.7950   -23.2800   -30.4050 f          1 5X1      -0.110333
     38 F03          1.4780   -22.8230   -32.5010 f          1 5X1      -0.110333
     39 H2           5.9710   -11.5590   -28.6790 hc         1 5X1       0.041367
     40 H3           4.8450   -11.8200   -27.3420 hc         1 5X1       0.041367
     41 H4          10.9660   -24.8920   -30.7120 h1         1 5X1       0.032700
     42 H5          11.9180   -24.0210   -31.9270 h1         1 5X1       0.032700
     43 H6          11.3730   -23.1810   -30.4590 h1         1 5X1       0.032700
     44 H7           6.8960   -15.7680   -30.6710 ha         1 5X1       0.112000
     45 H8           7.4790   -13.6540   -29.5550 ha         1 5X1       0.115000
     46 H9           2.6590   -11.8050   -21.1290 h5         1 5X1       0.051100
     47 H10          5.3430   -10.9920   -24.1410 h4         1 5X1       0.023100
     48 H11          3.6640   -14.9250   -23.6150 h4         1 5X1       0.023100
     49 H12          3.9080   -22.6500   -32.9420 ha         1 5X1       0.133000
     50 H13          2.4970   -20.2330   -29.6870 ha         1 5X1       0.154000
     51 H14          6.4280   -19.6370   -31.2880 ha         1 5X1       0.130000
     52 H15          4.7210   -16.9880   -27.1900 ha         1 5X1       0.151000
     53 H16          8.6180   -24.4800   -30.5210 h1         1 5X1       0.040200
     54 H17          8.8960   -22.7550   -30.2270 h1         1 5X1       0.040200
     55 H18         10.8470   -22.4130   -33.3490 h1         1 5X1       0.040200
     56 H19         10.2520   -21.4940   -31.9540 h1         1 5X1       0.040200
     57 H20          6.6330   -23.0890   -31.0630 h1         1 5X1       0.041200
     58 H21          7.2180   -23.9980   -32.4660 h1         1 5X1       0.041200
     59 H22          8.8570   -21.0210   -33.9000 h1         1 5X1       0.041200
     60 H23          8.5770   -22.7480   -34.1880 h1         1 5X1       0.041200
     61 H24          6.6140   -20.6630   -33.8060 h1         1 5X1       0.043700
     62 H25          6.0310   -22.3280   -33.8590 h1         1 5X1       0.043700
     63 H26          4.0630   -15.0590   -25.6760 h1         1 5X1       0.055700
     64 H27          5.6050   -15.5750   -25.0050 h1         1 5X1       0.055700
     65 H28          7.4320   -13.6150   -25.1870 h1         1 5X1       0.048200
     66 H29          6.7930   -11.9780   -25.0780 h1         1 5X1       0.048200
     67 H30          5.8300   -17.7300   -30.6490 hn         1 5X1       0.154000
     68 H31          7.8130   -12.5530   -27.2980 hc         1 5X1       0.057700
     69 H1           6.2000   -10.6950   -27.1510 hc         1 5X1       0.041367
@<TRIPOS>BOND
     1     1    21 1   
     2     1    36 1   
     3     1    37 1   
     4     1    38 1   
     5     2    32 1   
     6     2    39 1   
     7     2    40 1   
     8     2    69 1   
     9     3    33 1   
    10     3    41 1   
    11     3    42 1   
    12     3    43 1   
    13     4     5 ar  
    14     4    27 ar  
    15     4    44 1   
    16     5    31 ar  
    17     5    45 1   
    18     6    23 ar  
    19     6    24 ar  
    20     6    46 1   
    21     7    23 ar  
    22     7    30 ar  
    23     7    47 1   
    24     8    24 ar  
    25     8    30 ar  
    26     8    48 1   
    27     9    21 ar  
    28     9    22 ar  
    29     9    49 1   
    30    10    21 ar  
    31    10    28 ar  
    32    10    50 1   
    33    11    22 ar  
    34    11    28 ar  
    35    11    51 1   
    36    12    27 ar  
    37    12    29 ar  
    38    12    52 1   
    39    13    15 1   
    40    13    33 1   
    41    13    53 1   
    42    13    54 1   
    43    14    16 1   
    44    14    33 1   
    45    14    55 1   
    46    14    56 1   
    47    15    34 1   
    48    15    57 1   
    49    15    58 1   
    50    16    34 1   
    51    16    59 1   
    52    16    60 1   
    53    17    22 1   
    54    17    34 1   
    55    17    61 1   
    56    17    62 1   
    57    18    29 1   
    58    18    35 1   
    59    18    63 1   
    60    18    64 1   
    61    19    32 1   
    62    19    35 1   
    63    19    65 1   
    64    19    66 1   
    65    20    25 1   
    66    20    26 2   
    67    20    28 1   
    68    25    27 1   
    69    25    67 1   
    70    29    31 ar  
    71    30    35 1   
    72    31    32 1   
    73    32    68 1   
@<TRIPOS>SUBSTRUCTURE
     1 5X1         1 TEMP              0 ****  ****    0 ROOT
