@<TRIPOS>MOLECULE
5X2
   59    62     1     0     0
SMALL
No Charge or Current Charge


@<TRIPOS>ATOM
      1 C10          1.7470    -1.3590     0.6420 c3         1 5X2       0.165600
      2 C20          4.5800    -0.8200     1.0160 ca         1 5X2      -0.175000
      3 C21          5.9560    -0.5490     1.1550 ca         1 5X2      -0.024300
      4 C22          6.6100    -0.6710     2.5280 c3         1 5X2      -0.048300
      5 C01         -3.8570    -3.1510    -0.4640 ca         1 5X2      -0.024200
      6 C02         -4.6140    -4.1670    -1.0620 ca         1 5X2      -0.136000
      7 C03         -4.0270    -5.4420    -1.2020 ca         1 5X2      -0.072000
      8 C04         -2.7070    -5.6700    -0.7470 ca         1 5X2      -0.143000
      9 C05         -1.9690    -4.6260    -0.1500 ca         1 5X2      -0.046000
     10 C06         -2.5860    -3.3710    -0.0240 ca         1 5X2      -0.123800
     11 C07         -2.0860    -2.1420     0.5310 cc         1 5X2      -0.034400
     12 C09          0.3350    -1.5460     0.0580 c3         1 5X2      -0.078400
     13 O11          2.6140    -0.9670    -0.4350 os         1 5X2      -0.346100
     14 C12         -3.1140    -1.1980     0.3660 cd         1 5X2      -0.159300
     15 N13         -4.2340    -1.8430    -0.2430 na         1 5X2      -0.212700
     16 C14          6.7100    -0.1660     0.0210 ca         1 5X2       0.077000
     17 Cl1          8.4390     0.1770     0.1860 cl         1 5X2      -0.217000
     18 C16          6.0880    -0.0580    -1.2440 ca         1 5X2      -0.024300
     19 C18          4.7130    -0.3330    -1.3630 ca         1 5X2      -0.175000
     20 C19          3.9570    -0.7130    -0.2450 ca         1 5X2       0.159100
     21 C23         -3.0080     0.2470     0.7570 c          1 5X2       0.666300
     22 O24         -2.0200     0.7570     1.2610 o          1 5X2      -0.545100
     23 N25         -4.1300     0.9630     0.4840 ns         1 5X2      -0.592300
     24 S26         -4.3680     2.6000     0.7230 sy         1 5X2       1.178300
     25 O27         -5.7000     2.8700     0.1720 o          1 5X2      -0.527500
     26 O28         -4.0540     2.8660     2.1320 o          1 5X2      -0.527500
     27 C29         -1.2010     4.6460    -1.9500 ca         1 5X2      -0.050000
     28 C30         -2.4280     4.2360    -2.4970 ca         1 5X2      -0.130500
     29 C31         -3.3940     3.6170    -1.6850 ca         1 5X2      -0.004000
     30 C32         -3.1330     3.4070    -0.3140 ca         1 5X2      -0.286500
     31 C33         -1.8980     3.8170     0.2330 ca         1 5X2      -0.004000
     32 C34         -0.9370     4.4350    -0.5860 ca         1 5X2      -0.130500
     33 H1           1.7220    -0.5840     1.4200 h1         1 5X2       0.034700
     34 H2           2.0870    -2.3010     1.0910 h1         1 5X2       0.034700
     35 H3           7.3240     1.3480    -2.3510 hc         1 5X2       0.049200
     36 H4           7.6940    -0.3560    -2.6790 hc         1 5X2       0.049200
     37 H5           6.2510     0.3890    -3.3760 hc         1 5X2       0.049200
     38 H6           4.0120    -1.1130     1.8930 ha         1 5X2       0.124500
     39 H7           7.4120    -1.4180     2.5160 hc         1 5X2       0.049200
     40 H8           7.0420     0.2850     2.8450 hc         1 5X2       0.049200
     41 H9           5.8910    -0.9760     3.2980 hc         1 5X2       0.049200
     42 H11         -4.5890    -6.2520    -1.6620 ha         1 5X2       0.114000
     43 H12         -2.2570    -6.6540    -0.8600 ha         1 5X2       0.116000
     44 H13         -0.9530    -4.7940     0.1980 ha         1 5X2       0.119000
     45 H16          0.0120    -0.6060    -0.4050 hc         1 5X2       0.064200
     46 H17          0.3710    -2.3020    -0.7350 hc         1 5X2       0.064200
     47 H18         -5.1310    -1.4370    -0.4860 hn         1 5X2       0.352000
     48 H19          4.2220    -0.2540    -2.3290 ha         1 5X2       0.124500
     49 H20         -4.9200     0.5340     0.0430 hn         1 5X2       0.343500
     50 H21         -0.4550     5.1240    -2.5810 ha         1 5X2       0.118000
     51 H22         -2.6320     4.3980    -3.5530 ha         1 5X2       0.121500
     52 H23         -4.3390     3.3020    -2.1250 ha         1 5X2       0.137500
     53 H24         -1.6750     3.6540     1.2870 ha         1 5X2       0.137500
     54 H25          0.0140     4.7490    -0.1620 ha         1 5X2       0.121500
     55 C17          6.8820     0.3530    -2.4800 c3         1 5X2      -0.048300
     56 C08         -0.7030    -1.9710     1.1170 c3         1 5X2      -0.010200
     57 H10         -5.6270    -3.9810    -1.4110 ha         1 5X2       0.118000
     58 H14         -0.7140    -1.2520     1.9430 hc         1 5X2       0.055700
     59 H15         -0.3800    -2.9170     1.5670 hc         1 5X2       0.055700
@<TRIPOS>BOND
     1     1    12 1   
     2     1    13 1   
     3     1    33 1   
     4     1    34 1   
     5     2     3 ar  
     6     2    20 ar  
     7     2    38 1   
     8     3     4 1   
     9     3    16 ar  
    10     4    39 1   
    11     4    40 1   
    12     4    41 1   
    13     5     6 ar  
    14     5    10 ar  
    15     5    15 1   
    16     6     7 ar  
    17     6    57 1   
    18     7     8 ar  
    19     7    42 1   
    20     8     9 ar  
    21     8    43 1   
    22     9    10 ar  
    23     9    44 1   
    24    10    11 1   
    25    11    14 2   
    26    11    56 1   
    27    12    45 1   
    28    12    46 1   
    29    12    56 1   
    30    13    20 1   
    31    14    15 1   
    32    14    21 1   
    33    15    47 1   
    34    16    17 1   
    35    16    18 ar  
    36    18    19 ar  
    37    18    55 1   
    38    19    20 ar  
    39    19    48 1   
    40    21    22 2   
    41    21    23 1   
    42    23    24 1   
    43    23    49 1   
    44    24    25 2   
    45    24    26 2   
    46    24    30 1   
    47    27    28 ar  
    48    27    32 ar  
    49    27    50 1   
    50    28    29 ar  
    51    28    51 1   
    52    29    30 ar  
    53    29    52 1   
    54    30    31 ar  
    55    31    32 ar  
    56    31    53 1   
    57    32    54 1   
    58    35    55 1   
    59    36    55 1   
    60    37    55 1   
    61    56    58 1   
    62    56    59 1   
@<TRIPOS>SUBSTRUCTURE
     1 5X2         1 TEMP              0 ****  ****    0 ROOT
