@<TRIPOS>MOLECULE
5X2
   59    62     1     0     0
SMALL
abcg2


@<TRIPOS>ATOM
      1 C10          1.9110    -1.3140     0.5790 c3         1 5X2       0.165600
      2 C20          4.6880    -1.1330     1.0680 ca         1 5X2      -0.175000
      3 C21          6.0630    -1.0170     1.2700 ca         1 5X2      -0.024300
      4 C22          6.6600    -1.4310     2.5810 c3         1 5X2      -0.048300
      5 C01         -3.6970    -2.9300    -0.5480 ca         1 5X2      -0.024200
      6 C02         -4.4890    -3.9240    -1.1290 ca         1 5X2      -0.136000
      7 C03         -3.9560    -5.1920    -1.1980 ca         1 5X2      -0.072000
      8 C04         -2.6680    -5.4810    -0.7060 ca         1 5X2      -0.143000
      9 C05         -1.8870    -4.4970    -0.1420 ca         1 5X2      -0.046000
     10 C06         -2.4000    -3.1930    -0.0630 ca         1 5X2      -0.123800
     11 C07         -1.8700    -1.9660     0.4350 cc         1 5X2      -0.034400
     12 C09          0.5190    -1.3540    -0.0170 c3         1 5X2      -0.078400
     13 O11          2.8010    -0.8430    -0.4190 os         1 5X2      -0.346100
     14 C12         -2.8550    -1.0240     0.2410 cd         1 5X2      -0.159300
     15 N13         -3.9600    -1.6150    -0.3340 na         1 5X2      -0.212700
     16 C14          6.8410    -0.5140     0.2350 ca         1 5X2       0.077000
     17 CL1          8.5590    -0.3600     0.4700 cl         1 5X2      -0.217000
     18 C16          6.2950    -0.1240    -0.9900 ca         1 5X2      -0.024300
     19 C18          4.9250    -0.2540    -1.1580 ca         1 5X2      -0.175000
     20 C19          4.1150    -0.7570    -0.1410 ca         1 5X2       0.159100
     21 C23         -2.8140     0.3890     0.6140 c          1 5X2       0.666300
     22 O24         -1.7820     0.9940     0.8200 o          1 5X2      -0.545100
     23 N25         -4.0400     1.0110     0.7030 ns         1 5X2      -0.592300
     24 S26         -4.2100     2.6500     1.0350 sy         1 5X2       1.178300
     25 O27         -5.6420     2.8650     0.9440 o          1 5X2      -0.527500
     26 O28         -3.5110     2.9880     2.2570 o          1 5X2      -0.527500
     27 C29         -2.1990     4.6360    -2.4850 ca         1 5X2      -0.050000
     28 C30         -3.4320     4.0140    -2.6470 ca         1 5X2      -0.130500
     29 C31         -4.0480     3.4020    -1.5680 ca         1 5X2      -0.004000
     30 C32         -3.4060     3.4170    -0.3350 ca         1 5X2      -0.286500
     31 C33         -2.1770     4.0320    -0.1560 ca         1 5X2      -0.004000
     32 C34         -1.5760     4.6470    -1.2450 ca         1 5X2      -0.130500
     33 H1           1.9370    -0.6520     1.4540 h1         1 5X2       0.034700
     34 H2           2.2050    -2.3150     0.9150 h1         1 5X2       0.034700
     35 H3           7.6570     1.3340    -1.7900 hc         1 5X2       0.049200
     36 H4           7.9100    -0.2900    -2.4040 hc         1 5X2       0.049200
     37 H5           6.5350     0.6560    -2.9690 hc         1 5X2       0.049200
     38 H6           4.0880    -1.5250     1.8790 ha         1 5X2       0.124500
     39 H7           7.4270    -2.1950     2.4460 hc         1 5X2       0.049200
     40 H8           7.1330    -0.5900     3.0890 hc         1 5X2       0.049200
     41 H9           5.8960    -1.8360     3.2420 hc         1 5X2       0.049200
     42 H11         -4.5420    -5.9890    -1.6380 ha         1 5X2       0.114000
     43 H12         -2.2910    -6.4930    -0.7760 ha         1 5X2       0.116000
     44 H13         -0.8970    -4.7240     0.2310 ha         1 5X2       0.119000
     45 H16          0.2460    -0.3670    -0.3940 hc         1 5X2       0.064200
     46 H17          0.5070    -2.0440    -0.8640 hc         1 5X2       0.064200
     47 H18         -4.7510    -1.1300    -0.7260 hn         1 5X2       0.352000
     48 H19          4.4730     0.0440    -2.0970 ha         1 5X2       0.124500
     49 H20         -4.9050     0.4840     0.7290 hn         1 5X2       0.343500
     50 H21         -1.7240     5.1160    -3.3310 ha         1 5X2       0.118000
     51 H22         -3.9160     4.0070    -3.6130 ha         1 5X2       0.121500
     52 H23         -5.0100     2.9250    -1.6970 ha         1 5X2       0.137500
     53 H24         -1.6900     4.0410     0.8090 ha         1 5X2       0.137500
     54 H25         -0.6190     5.1360    -1.1200 ha         1 5X2       0.121500
     55 C17          7.1430     0.4220    -2.0970 c3         1 5X2      -0.048300
     56 C08         -0.5100    -1.7950     1.0260 c3         1 5X2      -0.010200
     57 H10         -5.4800    -3.7060    -1.5060 ha         1 5X2       0.118000
     58 H14         -0.5340    -1.0730     1.8430 hc         1 5X2       0.055700
     59 H15         -0.1980    -2.7470     1.4640 hc         1 5X2       0.055700
@<TRIPOS>BOND
     1     1    12 1   
     2     1    13 1   
     3     1    33 1   
     4     1    34 1   
     5     2     3 ar  
     6     2    20 ar  
     7     2    38 1   
     8     3     4 1   
     9     3    16 ar  
    10     4    39 1   
    11     4    40 1   
    12     4    41 1   
    13     5     6 ar  
    14     5    10 ar  
    15     5    15 1   
    16     6     7 ar  
    17     6    57 1   
    18     7     8 ar  
    19     7    42 1   
    20     8     9 ar  
    21     8    43 1   
    22     9    10 ar  
    23     9    44 1   
    24    10    11 1   
    25    11    14 2   
    26    11    56 1   
    27    12    45 1   
    28    12    46 1   
    29    12    56 1   
    30    13    20 1   
    31    14    15 1   
    32    14    21 1   
    33    15    47 1   
    34    16    17 1   
    35    16    18 ar  
    36    18    19 ar  
    37    18    55 1   
    38    19    20 ar  
    39    19    48 1   
    40    21    22 2   
    41    21    23 1   
    42    23    24 1   
    43    23    49 1   
    44    24    25 2   
    45    24    26 2   
    46    24    30 1   
    47    27    28 ar  
    48    27    32 ar  
    49    27    50 1   
    50    28    29 ar  
    51    28    51 1   
    52    29    30 ar  
    53    29    52 1   
    54    30    31 ar  
    55    31    32 ar  
    56    31    53 1   
    57    32    54 1   
    58    35    55 1   
    59    36    55 1   
    60    37    55 1   
    61    56    58 1   
    62    56    59 1   
@<TRIPOS>SUBSTRUCTURE
     1 5X2         1 TEMP              0 ****  ****    0 ROOT
