@<TRIPOS>MOLECULE
5X3
   71    75     1     0     0
SMALL
abcg2


@<TRIPOS>ATOM
      1 C10         39.1370    -0.8660    19.7120 c          1 5X3       0.648300
      2 N12         36.9880     0.3200    20.2180 na         1 5X3      -0.213700
      3 C13         36.2300     1.3220    19.6810 ca         1 5X3      -0.022200
      4 C15         36.2790     2.7810    17.7410 ca         1 5X3      -0.035000
      5 C17         34.5080     2.8930    19.3820 ca         1 5X3       0.163000
      6 C20         34.4430     1.3760    21.4180 cc         1 5X3      -0.168000
      7 C21         33.9740     0.0880    21.6450 cd         1 5X3      -0.114300
      8 C22         33.8990    -1.0980    20.7480 c3         1 5X3      -0.036800
      9 O01         42.6290    -4.7980    15.6530 o          1 5X3      -0.680000
     10 C03         41.3640    -4.3680    17.5600 cc         1 5X3       0.187500
     11 C04         40.2050    -5.0560    17.3190 cd         1 5X3      -0.238000
     12 C05         39.3430    -4.8250    18.4240 cd         1 5X3      -0.063000
     13 C06         40.0410    -4.0070    19.2640 cc         1 5X3      -0.194100
     14 O08         38.6090    -4.2070    21.3850 o          1 5X3      -0.546500
     15 N09         38.6660    -1.9550    20.4490 ns         1 5X3      -0.595300
     16 C11         38.1480     0.1760    19.4610 cc         1 5X3      -0.150300
     17 C14         36.8860     1.7790    18.5110 ca         1 5X3      -0.123800
     18 C16         35.0970     3.3330    18.1820 ca         1 5X3      -0.142000
     19 C19         35.0340     1.8770    20.1710 ca         1 5X3      -0.014000
     20 N23         33.5700     0.0670    22.9320 na         1 5X3      -0.017200
     21 N24         33.7560     1.2460    23.5700 nd         1 5X3      -0.526800
     22 C25         34.2890     2.0540    22.6580 cc         1 5X3       0.289300
     23 C27         38.1220     1.0660    18.4000 cd         1 5X3      -0.043400
     24 C29         40.3460     2.1790    17.9230 c3         1 5X3      -0.079400
     25 C30         39.9040     3.4540    18.6110 c3         1 5X3       0.160600
     26 O31         39.2920     4.3170    17.6400 os         1 5X3      -0.360100
     27 C32         38.2970     5.1640    18.0200 ca         1 5X3       0.164100
     28 C33         37.9010     5.3800    19.3350 ca         1 5X3      -0.174000
     29 C34         36.7880     6.1730    19.6200 ca         1 5X3      -0.026800
     30 C35         36.3400     6.3520    21.0420 c3         1 5X3      -0.046800
     31 C36         37.6230     5.8040    16.9800 ca         1 5X3      -0.174000
     32 C37         36.5170     6.6060    17.2250 ca         1 5X3      -0.026800
     33 C38         35.7800     7.2470    16.0840 c3         1 5X3      -0.046800
     34 C39         36.1110     6.7620    18.5550 ca         1 5X3       0.080000
     35 CL          34.6770     7.7260    18.8920 cl         1 5X3      -0.235000
     36 O41         40.2850    -0.8270    19.3020 o          1 5X3      -0.498100
     37 O42         40.7520    -2.9220    21.4990 o          1 5X3      -0.546500
     38 O43         41.2670    -3.7210    18.7590 os         1 5X3      -0.141000
     39 O44         43.5520    -3.5350    17.2770 o          1 5X3      -0.680000
     40 H1          36.8460    -0.0530    21.1440 hn         1 5X3       0.360000
     41 H2          36.7360     3.1350    16.8290 ha         1 5X3       0.130000
     42 H3          34.7680    -1.7480    20.8820 hc         1 5X3       0.056700
     43 H4          33.0040    -1.6870    20.9530 hc         1 5X3       0.056700
     44 H5          33.8770    -0.7800    19.7060 hc         1 5X3       0.056700
     45 H6          34.6640     3.6090    24.0650 hc         1 5X3       0.050367
     46 H7          35.6630     3.6880    22.6020 hc         1 5X3       0.050367
     47 H8          33.9760     4.1720    22.5340 hc         1 5X3       0.050367
     48 H9          38.7350     1.8190    16.5200 hc         1 5X3       0.065700
     49 H10         39.6010     0.3750    17.0230 hc         1 5X3       0.065700
     50 H11         40.0010    -5.6590    16.4520 ha         1 5X3       0.145000
     51 H12         38.3480    -5.2060    18.5830 ha         1 5X3       0.125000
     52 H13         37.6680    -2.1170    20.5140 hn         1 5X3       0.325500
     53 H14         34.6190     4.1230    17.6230 ha         1 5X3       0.131000
     54 H15         33.1660    -0.7120    23.4280 hn         1 5X3       0.371000
     55 H16         40.9040     1.5920    18.6550 hc         1 5X3       0.072200
     56 H17         41.0290     2.4170    17.1040 hc         1 5X3       0.072200
     57 H18         40.7550     3.9730    19.0600 h1         1 5X3       0.042700
     58 H19         39.1910     3.2180    19.4000 h1         1 5X3       0.042700
     59 H20         38.4220     4.9170    20.1590 ha         1 5X3       0.126000
     60 H21         35.3210     5.9850    21.1790 hc         1 5X3       0.048033
     61 H22         36.9950     5.8080    21.7200 hc         1 5X3       0.048033
     62 H23         36.3410     7.4070    21.3280 hc         1 5X3       0.048033
     63 H24         37.9460     5.6290    15.9620 ha         1 5X3       0.126000
     64 H25         34.7410     6.9090    16.0500 hc         1 5X3       0.048033
     65 H26         35.7570     8.3340    16.1890 hc         1 5X3       0.048033
     66 H27         36.2560     6.9990    15.1370 hc         1 5X3       0.048033
     67 C26         34.6680     3.4580    22.9860 c3         1 5X3      -0.123400
     68 C28         39.1850     1.3190    17.3780 c3         1 5X3      -0.012200
     69 S07         39.5700    -3.3180    20.7890 sy         1 5X3       1.188900
     70 CL2         33.0100     3.6680    19.8550 cl         1 5X3      -0.218000
     71 C02         42.6370    -4.2150    16.7620 c          1 5X3       0.617500
@<TRIPOS>BOND
     1     1    15 1   
     2     1    16 1   
     3     1    36 2   
     4     2     3 1   
     5     2    16 1   
     6     2    40 1   
     7     3    17 ar  
     8     3    19 ar  
     9     4    17 ar  
    10     4    18 ar  
    11     4    41 1   
    12     5    18 ar  
    13     5    19 ar  
    14     5    70 1   
    15     6     7 2   
    16     6    19 1   
    17     6    22 1   
    18     7     8 1   
    19     7    20 1   
    20     8    42 1   
    21     8    43 1   
    22     8    44 1   
    23     9    71 1   
    24    10    11 2   
    25    10    38 1   
    26    10    71 1   
    27    11    12 1   
    28    11    50 1   
    29    12    13 2   
    30    12    51 1   
    31    13    38 1   
    32    13    69 1   
    33    14    69 2   
    34    15    52 1   
    35    15    69 1   
    36    16    23 2   
    37    17    23 1   
    38    18    53 1   
    39    20    21 1   
    40    20    54 1   
    41    21    22 2   
    42    22    67 1   
    43    23    68 1   
    44    24    25 1   
    45    24    55 1   
    46    24    56 1   
    47    24    68 1   
    48    25    26 1   
    49    25    57 1   
    50    25    58 1   
    51    26    27 1   
    52    27    28 ar  
    53    27    31 ar  
    54    28    29 ar  
    55    28    59 1   
    56    29    30 1   
    57    29    34 ar  
    58    30    60 1   
    59    30    61 1   
    60    30    62 1   
    61    31    32 ar  
    62    31    63 1   
    63    32    33 1   
    64    32    34 ar  
    65    33    64 1   
    66    33    65 1   
    67    33    66 1   
    68    34    35 1   
    69    37    69 2   
    70    39    71 1   
    71    45    67 1   
    72    46    67 1   
    73    47    67 1   
    74    48    68 1   
    75    49    68 1   
@<TRIPOS>SUBSTRUCTURE
     1 5X3         1 TEMP              0 ****  ****    0 ROOT
