@<TRIPOS>MOLECULE
5X3
   71    75     1     0     0
SMALL
No Charge or Current Charge


@<TRIPOS>ATOM
      1 C10         39.5650    -0.7350    19.4440 c          1 5X3       0.648300
      2 N12         37.1830     0.2910    19.9280 na         1 5X3      -0.213700
      3 C13         36.3630     1.2420    19.3520 ca         1 5X3      -0.022200
      4 C15         36.4100     2.7640    17.4760 ca         1 5X3      -0.035000
      5 C17         34.5200     2.7630    19.0370 ca         1 5X3       0.163000
      6 C20         34.5110     1.1710    21.0240 cc         1 5X3      -0.168000
      7 C21         34.1810    -0.1530    21.1190 cd         1 5X3      -0.114300
      8 C22         34.3680    -1.3050    20.1590 c3         1 5X3      -0.036800
      9 O01         41.0490    -6.2570    15.9430 o          1 5X3      -0.680000
     10 C03         40.7840    -4.9570    17.8880 cc         1 5X3       0.187500
     11 C04         39.5820    -5.4470    18.3420 cd         1 5X3      -0.238000
     12 C05         39.2700    -4.7570    19.5310 cd         1 5X3      -0.063000
     13 C06         40.2920    -3.8700    19.7590 cc         1 5X3      -0.194100
     14 O08         39.8330    -3.2420    22.3230 o          1 5X3      -0.546500
     15 N09         39.4090    -1.5250    20.5410 ns         1 5X3      -0.595300
     16 C11         38.3930     0.1570    19.1970 cc         1 5X3      -0.150300
     17 C14         36.9910     1.7560    18.2560 ca         1 5X3      -0.123800
     18 C16         35.1590     3.2650    17.8810 ca         1 5X3      -0.142000
     19 C19         35.1190     1.7230    19.8040 ca         1 5X3      -0.014000
     20 N23         33.4880    -0.2560    22.3320 na         1 5X3      -0.017200
     21 N24         33.3390     0.9740    22.9720 nd         1 5X3      -0.526800
     22 C25         33.9390     1.8070    22.1460 cc         1 5X3       0.289300
     23 C27         38.2790     1.0970    18.1620 cd         1 5X3      -0.043400
     24 C29         40.4380     2.4210    17.7740 c3         1 5X3      -0.079400
     25 C30         39.8850     3.5940    18.6140 c3         1 5X3       0.160600
     26 O31         39.1270     4.4530    17.7430 os         1 5X3      -0.360100
     27 C32         38.1660     5.3260    18.2140 ca         1 5X3       0.164100
     28 C33         37.8770     5.4810    19.5860 ca         1 5X3      -0.174000
     29 C34         36.8290     6.3260    20.0020 ca         1 5X3      -0.026800
     30 C35         36.5230     6.4650    21.4890 c3         1 5X3      -0.046800
     31 C36         37.4170     6.0340    17.2640 ca         1 5X3      -0.174000
     32 C37         36.3680     6.8850    17.6600 ca         1 5X3      -0.026800
     33 C38         35.5610     7.6250    16.5990 c3         1 5X3      -0.046800
     34 C39         36.0720     7.0270    19.0350 ca         1 5X3       0.080000
     35 Cl          34.7480     8.0850    19.5470 cl         1 5X3      -0.235000
     36 O41         40.5640    -0.7770    18.7450 o          1 5X3      -0.498100
     37 O42         41.8180    -2.1250    21.1160 o          1 5X3      -0.546500
     38 O43         41.2370    -3.9800    18.7560 os         1 5X3      -0.141000
     39 O44         42.5980    -4.8440    16.3910 o          1 5X3      -0.680000
     40 H1          36.9380    -0.2140    20.7720 hn         1 5X3       0.360000
     41 H2          36.9080     3.1620    16.5960 ha         1 5X3       0.130000
     42 H3          35.2450    -1.9060    20.4260 hc         1 5X3       0.056700
     43 H4          33.4960    -1.9700    20.1680 hc         1 5X3       0.056700
     44 H5          34.4980    -0.9550    19.1290 hc         1 5X3       0.056700
     45 H6          34.4270     3.4260    23.4770 hc         1 5X3       0.050367
     46 H7          34.8130     3.7500    21.7840 hc         1 5X3       0.050367
     47 H8          33.1240     3.7930    22.3340 hc         1 5X3       0.050367
     48 H9          38.8850     2.0250    16.3160 hc         1 5X3       0.065700
     49 H10         39.8180     0.6160    16.7180 hc         1 5X3       0.065700
     50 H11         38.9890    -6.2220    17.8670 ha         1 5X3       0.145000
     51 H12         38.3880    -4.8960    20.1500 ha         1 5X3       0.125000
     52 H13         38.5630    -1.4940    21.0780 hn         1 5X3       0.325500
     53 H14         34.6790     4.0460    17.2970 ha         1 5X3       0.131000
     54 H15         33.0980    -1.1110    22.7280 hn         1 5X3       0.371000
     55 H16         41.0890     1.8220    18.4200 hc         1 5X3       0.072200
     56 H17         41.0750     2.8150    16.9730 hc         1 5X3       0.072200
     57 H18         40.7110     4.1490    19.0790 h1         1 5X3       0.042700
     58 H19         39.2590     3.1790    19.4130 h1         1 5X3       0.042700
     59 H20         38.4480     4.9490    20.3390 ha         1 5X3       0.126000
     60 H21         35.4780     6.2110    21.7030 hc         1 5X3       0.048033
     61 H22         37.1490     5.8040    22.1000 hc         1 5X3       0.048033
     62 H23         36.6970     7.4920    21.8310 hc         1 5X3       0.048033
     63 H24         37.6430     5.9020    16.2090 ha         1 5X3       0.126000
     64 H25         34.5030     7.3390    16.6390 hc         1 5X3       0.048033
     65 H26         35.6230     8.7100    16.7430 hc         1 5X3       0.048033
     66 H27         35.9210     7.4080    15.5870 hc         1 5X3       0.048033
     67 C26         34.0830     3.2750    22.4480 c3         1 5X3      -0.123400
     68 C28         39.3460     1.5010    17.1610 c3         1 5X3      -0.012200
     69 S07         40.4640    -2.6920    21.1180 sy         1 5X3       1.188900
     70 Cl2         32.9110     3.3850    19.4090 cl         1 5X3      -0.218000
     71 C02         41.5280    -5.3810    16.6550 c          1 5X3       0.617500
@<TRIPOS>BOND
     1     1    15 1   
     2     1    16 1   
     3     1    36 2   
     4     2     3 1   
     5     2    16 1   
     6     2    40 1   
     7     3    17 ar  
     8     3    19 ar  
     9     4    17 ar  
    10     4    18 ar  
    11     4    41 1   
    12     5    18 ar  
    13     5    19 ar  
    14     5    70 1   
    15     6     7 2   
    16     6    19 1   
    17     6    22 1   
    18     7     8 1   
    19     7    20 1   
    20     8    42 1   
    21     8    43 1   
    22     8    44 1   
    23     9    71 1   
    24    10    11 2   
    25    10    38 1   
    26    10    71 1   
    27    11    12 1   
    28    11    50 1   
    29    12    13 2   
    30    12    51 1   
    31    13    38 1   
    32    13    69 1   
    33    14    69 2   
    34    15    52 1   
    35    15    69 1   
    36    16    23 2   
    37    17    23 1   
    38    18    53 1   
    39    20    21 1   
    40    20    54 1   
    41    21    22 2   
    42    22    67 1   
    43    23    68 1   
    44    24    25 1   
    45    24    55 1   
    46    24    56 1   
    47    24    68 1   
    48    25    26 1   
    49    25    57 1   
    50    25    58 1   
    51    26    27 1   
    52    27    28 ar  
    53    27    31 ar  
    54    28    29 ar  
    55    28    59 1   
    56    29    30 1   
    57    29    34 ar  
    58    30    60 1   
    59    30    61 1   
    60    30    62 1   
    61    31    32 ar  
    62    31    63 1   
    63    32    33 1   
    64    32    34 ar  
    65    33    64 1   
    66    33    65 1   
    67    33    66 1   
    68    34    35 1   
    69    37    69 2   
    70    39    71 1   
    71    45    67 1   
    72    46    67 1   
    73    47    67 1   
    74    48    68 1   
    75    49    68 1   
@<TRIPOS>SUBSTRUCTURE
     1 5X3         1 TEMP              0 ****  ****    0 ROOT
