@<TRIPOS>MOLECULE
5X4
   61    64     1     0     0
SMALL
No Charge or Current Charge


@<TRIPOS>ATOM
      1 C11         -1.7910    -1.0980    -0.3830 c          1 5X4       0.624700
      2 C12         -2.8350    -0.0460    -0.0510 ca         1 5X4      -0.158600
      3 C13         -2.5410     1.1030     0.7260 ca         1 5X4      -0.057000
      4 C14         -3.5430     2.0450     1.0080 ca         1 5X4      -0.125000
      5 C15         -4.8470     1.8660     0.5220 ca         1 5X4      -0.040000
      6 C16         -5.1620     0.7360    -0.2600 ca         1 5X4      -0.206300
      7 C17         -6.5840     0.5180    -0.7910 c3         1 5X4       0.359300
      8 C21         -4.1540    -0.2130    -0.5330 ca         1 5X4      -0.010000
      9 C24          2.3050     0.1510     0.8160 c3         1 5X4       0.069300
     10 C25          1.8490     0.5140     2.2510 c3         1 5X4      -0.086400
     11 C26          2.3780     1.8600     2.7950 c3         1 5X4      -0.066400
     12 C27          1.9320     3.1050     1.9910 c3         1 5X4      -0.093400
     13 C28          2.7830     3.3930     0.7310 c3         1 5X4       0.109000
     14 C02          4.0870    -2.5470     0.6240 ca         1 5X4      -0.068300
     15 C03          4.6410    -3.7870     0.2290 ca         1 5X4      -0.099000
     16 C04          3.8730    -4.7400    -0.4730 ca         1 5X4      -0.129000
     17 C05          2.5250    -4.4770    -0.7730 ca         1 5X4      -0.051000
     18 C06          1.9810    -3.2460    -0.3860 ca         1 5X4       0.071400
     19 C07          2.7370    -2.2940     0.2560 ca         1 5X4      -0.055200
     20 N08          1.8770    -1.2270     0.4560 na         1 5X4      -0.174600
     21 C09          0.6140    -1.6300    -0.0060 cc         1 5X4       0.456400
     22 N10         -0.5220    -0.8550     0.0950 ns         1 5X4      -0.431400
     23 F18         -7.2720    -0.3430    -0.0090 f          1 5X4      -0.111000
     24 F19         -7.3030     1.6620    -0.8470 f          1 5X4      -0.111000
     25 F20         -6.5830     0.0020    -2.0420 f          1 5X4      -0.111000
     26 O22         -2.0790    -2.0900    -1.0380 o          1 5X4      -0.543100
     27 N23          0.6620    -2.8500    -0.5540 nd         1 5X4      -0.560100
     28 N29          2.8140     2.3540    -0.3350 n          1 5X4      -0.419800
     29 C31          4.6140     3.7150    -1.5370 c3         1 5X4      -0.151400
     30 C32          5.4720     3.8240    -2.8200 c3         1 5X4      -0.077100
     31 O33          3.7300     1.6120    -2.3120 o          1 5X4      -0.595100
     32 C34          1.8800     1.1990    -0.2440 c3         1 5X4       0.093000
     33 H1          -1.5490     1.2860     1.1280 ha         1 5X4       0.119000
     34 H2          -3.3080     2.9200     1.6100 ha         1 5X4       0.127000
     35 H3          -5.6060     2.6080     0.7610 ha         1 5X4       0.133000
     36 H4          -4.4020    -1.0930    -1.1270 ha         1 5X4       0.156000
     37 H5           3.3940     0.1800     0.7960 h1         1 5X4       0.086700
     38 H6           0.7540     0.5200     2.3020 hc         1 5X4       0.045200
     39 H7           2.1780    -0.2800     2.9330 hc         1 5X4       0.045200
     40 H8           2.0180     1.9700     3.8260 hc         1 5X4       0.046700
     41 H9           3.4730     1.8300     2.8540 hc         1 5X4       0.046700
     42 H10          0.8690     3.0300     1.7290 hc         1 5X4       0.046700
     43 H11          2.0170     3.9790     2.6480 hc         1 5X4       0.046700
     44 H12          2.4150     4.3260     0.2850 h1         1 5X4       0.045700
     45 H13          3.8110     3.5750     1.0690 h1         1 5X4       0.045700
     46 H14          5.3580    -0.7900     0.8320 hc         1 5X4       0.046033
     47 H15          4.4040    -1.1730     2.2890 hc         1 5X4       0.046033
     48 H16          5.8190    -2.1300     1.8800 hc         1 5X4       0.046033
     49 H17          5.6740    -4.0240     0.4770 ha         1 5X4       0.109000
     50 H18          4.3180    -5.6890    -0.7620 ha         1 5X4       0.114000
     51 H19          1.9140    -5.2160    -1.2860 ha         1 5X4       0.130000
     52 H20         -0.4320     0.0040     0.6080 hn         1 5X4       0.331500
     53 H21          4.0050     4.6140    -1.3910 hc         1 5X4       0.055200
     54 H22          5.2470     3.7330    -0.6430 hc         1 5X4       0.055200
     55 H23          6.1420     2.9610    -2.9150 hc         1 5X4       0.043367
     56 H24          4.8330     3.8700    -3.7100 hc         1 5X4       0.043367
     57 H25          6.0860     4.7320    -2.7920 hc         1 5X4       0.043367
     58 H26          1.8210     0.7000    -1.2200 h1         1 5X4       0.074200
     59 H27          0.8690     1.5680    -0.0360 h1         1 5X4       0.074200
     60 C30          3.6930     2.4760    -1.4450 c          1 5X4       0.596100
     61 C01          4.9590    -1.6040     1.4480 c3         1 5X4      -0.048800
@<TRIPOS>BOND
     1     1     2 1   
     2     1    22 1   
     3     1    26 2   
     4     2     3 ar  
     5     2     8 ar  
     6     3     4 ar  
     7     3    33 1   
     8     4     5 ar  
     9     4    34 1   
    10     5     6 ar  
    11     5    35 1   
    12     6     7 1   
    13     6     8 ar  
    14     7    23 1   
    15     7    24 1   
    16     7    25 1   
    17     8    36 1   
    18     9    10 1   
    19     9    20 1   
    20     9    32 1   
    21     9    37 1   
    22    10    11 1   
    23    10    38 1   
    24    10    39 1   
    25    11    12 1   
    26    11    40 1   
    27    11    41 1   
    28    12    13 1   
    29    12    42 1   
    30    12    43 1   
    31    13    28 1   
    32    13    44 1   
    33    13    45 1   
    34    14    15 ar  
    35    14    19 ar  
    36    14    61 1   
    37    15    16 ar  
    38    15    49 1   
    39    16    17 ar  
    40    16    50 1   
    41    17    18 ar  
    42    17    51 1   
    43    18    19 ar  
    44    18    27 1   
    45    19    20 1   
    46    20    21 1   
    47    21    22 1   
    48    21    27 2   
    49    22    52 1   
    50    28    32 1   
    51    28    60 1   
    52    29    30 1   
    53    29    53 1   
    54    29    54 1   
    55    29    60 1   
    56    30    55 1   
    57    30    56 1   
    58    30    57 1   
    59    31    60 2   
    60    32    58 1   
    61    32    59 1   
    62    46    61 1   
    63    47    61 1   
    64    48    61 1   
@<TRIPOS>SUBSTRUCTURE
     1 5X4         1 TEMP              0 ****  ****    0 ROOT
