@<TRIPOS>MOLECULE
5X4
   61    64     1     0     0
SMALL
bcc


@<TRIPOS>ATOM
      1 C11         -1.3270    -0.8110    -0.1100 c          1 5X4       0.691700
      2 C12         -2.5790    -0.0910     0.2640 ca         1 5X4      -0.158600
      3 C13         -3.1080    -0.1090     1.5500 ca         1 5X4      -0.075000
      4 C14         -4.2850     0.5690     1.8290 ca         1 5X4      -0.143000
      5 C15         -4.9380     1.2700     0.8310 ca         1 5X4      -0.058000
      6 C16         -4.4160     1.2820    -0.4590 ca         1 5X4      -0.206300
      7 C17         -5.1230     2.0700    -1.5180 c3         1 5X4       0.723200
      8 C21         -3.2460     0.6000    -0.7450 ca         1 5X4      -0.028000
      9 C24          2.2970     0.1400     0.7590 c3         1 5X4       0.040000
     10 C25          2.1380     0.6230     2.1990 c3         1 5X4      -0.086400
     11 C26          2.4700     2.0990     2.4170 c3         1 5X4      -0.066400
     12 C27          1.4980     3.0640     1.7360 c3         1 5X4      -0.093400
     13 C28          1.8610     3.4080     0.2930 c3         1 5X4       0.109000
     14 C02          4.2000    -2.4580     0.3140 ca         1 5X4      -0.068300
     15 C03          4.6720    -3.7490     0.1250 ca         1 5X4      -0.117000
     16 C04          3.8400    -4.8760     0.0680 ca         1 5X4      -0.147000
     17 C05          2.4750    -4.7530     0.2050 ca         1 5X4      -0.069000
     18 C06          1.9620    -3.4700     0.3960 ca         1 5X4       0.071400
     19 C07          2.8050    -2.3440     0.4450 ca         1 5X4      -0.055200
     20 N08          1.9490    -1.2750     0.6360 na         1 5X4      -0.145300
     21 C09          0.6960    -1.8090     0.7040 cc         1 5X4       0.456400
     22 N10         -0.4330    -1.0150     0.8980 ns         1 5X4      -0.498400
     23 F18         -6.4430     1.8420    -1.5070 f          1 5X4      -0.232300
     24 F19         -4.9620     3.3890    -1.3350 f          1 5X4      -0.232300
     25 F20         -4.6850     1.7890    -2.7470 f          1 5X4      -0.232300
     26 O22         -1.0980    -1.1530    -1.2520 o          1 5X4      -0.543100
     27 N23          0.6560    -3.0970     0.5670 nd         1 5X4      -0.560100
     28 N29          2.2880     2.2500    -0.4790 n          1 5X4      -0.486800
     29 C31          4.0420     3.5700    -1.5930 c3         1 5X4      -0.151400
     30 C32          5.0920     3.4830    -2.6860 c3         1 5X4      -0.077100
     31 O33          3.6520     1.2380    -1.9510 o          1 5X4      -0.595100
     32 C34          1.5710     1.0080    -0.2820 c3         1 5X4       0.093000
     33 H1          -2.6340    -0.6690     2.3470 ha         1 5X4       0.137000
     34 H2          -4.6960     0.5460     2.8290 ha         1 5X4       0.145000
     35 H3          -5.8540     1.7960     1.0670 ha         1 5X4       0.151000
     36 H4          -2.8330     0.5970    -1.7440 ha         1 5X4       0.174000
     37 H5           3.3490     0.2010     0.5030 h1         1 5X4       0.086700
     38 H6           1.1140     0.4540     2.5440 hc         1 5X4       0.045200
     39 H7           2.7800     0.0100     2.8360 hc         1 5X4       0.045200
     40 H8           2.4420     2.2760     3.4940 hc         1 5X4       0.046700
     41 H9           3.4970     2.3090     2.1050 hc         1 5X4       0.046700
     42 H10          0.4820     2.6630     1.7960 hc         1 5X4       0.046700
     43 H11          1.4680     4.0080     2.2830 hc         1 5X4       0.046700
     44 H12          1.0120     3.8980    -0.1940 h1         1 5X4       0.045700
     45 H13          2.6720     4.1320     0.3170 h1         1 5X4       0.045700
     46 H14          5.0050    -0.5940    -0.4350 hc         1 5X4       0.046033
     47 H15          5.1260    -0.7770     1.3150 hc         1 5X4       0.046033
     48 H16          6.1890    -1.6890     0.2590 hc         1 5X4       0.046033
     49 H17          5.7410    -3.8890     0.0170 ha         1 5X4       0.127000
     50 H18          4.2840    -5.8510    -0.0830 ha         1 5X4       0.132000
     51 H19          1.8160    -5.6110     0.1690 ha         1 5X4       0.148000
     52 H20         -0.6410    -0.7030     1.8350 hn         1 5X4       0.331500
     53 H21          3.3120     4.3480    -1.8330 hc         1 5X4       0.055200
     54 H22          4.5100     3.8860    -0.6550 hc         1 5X4       0.055200
     55 H23          5.8660     2.7560    -2.4470 hc         1 5X4       0.043367
     56 H24          4.6550     3.2070    -3.6450 hc         1 5X4       0.043367
     57 H25          5.5740     4.4530    -2.8080 hc         1 5X4       0.043367
     58 H26          1.5010     0.4670    -1.2250 h1         1 5X4       0.074200
     59 H27          0.5560     1.2490     0.0300 h1         1 5X4       0.074200
     60 C30          3.3200     2.2580    -1.3600 c          1 5X4       0.663100
     61 C01          5.1720    -1.3150     0.3660 c3         1 5X4      -0.048800
@<TRIPOS>BOND
     1     1     2 1   
     2     1    22 1   
     3     1    26 2   
     4     2     3 ar  
     5     2     8 ar  
     6     3     4 ar  
     7     3    33 1   
     8     4     5 ar  
     9     4    34 1   
    10     5     6 ar  
    11     5    35 1   
    12     6     7 1   
    13     6     8 ar  
    14     7    23 1   
    15     7    24 1   
    16     7    25 1   
    17     8    36 1   
    18     9    10 1   
    19     9    20 1   
    20     9    32 1   
    21     9    37 1   
    22    10    11 1   
    23    10    38 1   
    24    10    39 1   
    25    11    12 1   
    26    11    40 1   
    27    11    41 1   
    28    12    13 1   
    29    12    42 1   
    30    12    43 1   
    31    13    28 1   
    32    13    44 1   
    33    13    45 1   
    34    14    15 ar  
    35    14    19 ar  
    36    14    61 1   
    37    15    16 ar  
    38    15    49 1   
    39    16    17 ar  
    40    16    50 1   
    41    17    18 ar  
    42    17    51 1   
    43    18    19 ar  
    44    18    27 1   
    45    19    20 1   
    46    20    21 1   
    47    21    22 1   
    48    21    27 2   
    49    22    52 1   
    50    28    32 1   
    51    28    60 1   
    52    29    30 1   
    53    29    53 1   
    54    29    54 1   
    55    29    60 1   
    56    30    55 1   
    57    30    56 1   
    58    30    57 1   
    59    31    60 2   
    60    32    58 1   
    61    32    59 1   
    62    46    61 1   
    63    47    61 1   
    64    48    61 1   
@<TRIPOS>SUBSTRUCTURE
     1 5X4         1 TEMP              0 ****  ****    0 ROOT
