@<TRIPOS>MOLECULE
5X6
   98    99     1     0     0
SMALL
abcg2


@<TRIPOS>ATOM
      1 C17          8.6170    46.4640    21.6140 ce         1 5X6      -0.061700
      2 C18          9.0910    47.4520    22.4180 cf         1 5X6      -0.177500
      3 C16          7.1980    46.1920    21.6290 ce         1 5X6      -0.176500
      4 C26         17.0490    51.8650    26.2790 ce         1 5X6      -0.060200
      5 C19         10.4590    47.8350    22.6030 cf         1 5X6      -0.171000
      6 C10          0.1790    40.9140    19.0090 c3         1 5X6      -0.083100
      7 C12          3.0550    43.8330    20.7550 ce         1 5X6      -0.185500
      8 C13          4.4790    43.9260    20.4820 ce         1 5X6      -0.060200
      9 C20         10.8480    48.8070    23.4640 ce         1 5X6      -0.171000
     10 C14          5.1720    44.9420    21.0550 cf         1 5X6      -0.182000
     11 C15          6.5830    45.1910    20.9580 cf         1 5X6      -0.169500
     12 C34         21.7040    53.3670    26.5350 c6         1 5X6       0.005200
     13 C33         23.2040    53.0630    26.6680 c6         1 5X6      -0.086900
     14 C40         11.8750    50.9680    25.3870 c3         1 5X6      -0.055900
     15 C32         23.6360    51.6910    26.1810 c6         1 5X6       0.176300
     16 C31         22.8540    50.6360    26.9350 c6         1 5X6      -0.059700
     17 C30         21.3800    50.9150    27.0500 c2         1 5X6      -0.090900
     18 C29         20.8530    52.1360    26.8470 cf         1 5X6      -0.078700
     19 C39         16.5170    52.9290    27.1900 c3         1 5X6      -0.055900
     20 C28         19.4040    52.3770    26.9030 cf         1 5X6      -0.160500
     21 C27         18.4880    51.6680    26.2240 ce         1 5X6      -0.185500
     22 C21         12.2230    49.1390    23.6850 ce         1 5X6      -0.177500
     23 C22         12.7250    50.0730    24.5360 cf         1 5X6      -0.061700
     24 C23         14.1610    50.1920    24.6380 cf         1 5X6      -0.176500
     25 C24         14.8330    51.0490    25.4400 ce         1 5X6      -0.169500
     26 C25         16.2680    51.0630    25.5130 ce         1 5X6      -0.182000
     27 C38         20.5960    49.7040    27.4640 c3         1 5X6      -0.056900
     28 C02          0.2820    42.9040    21.8280 c2         1 5X6      -0.090900
     29 C03          0.8010    42.7500    20.5940 cf         1 5X6      -0.078700
     30 C04         -0.0540    42.3870    19.3770 c6         1 5X6       0.005200
     31 C05         -1.5410    42.6290    19.6580 c6         1 5X6      -0.086900
     32 C06         -1.9690    42.0900    21.0030 c6         1 5X6       0.176300
     33 C07         -1.2000    42.8190    22.0900 c6         1 5X6      -0.059700
     34 O08         -3.3660    42.2630    21.1270 oh         1 5X6      -0.657500
     35 C09          0.3300    43.2540    18.1720 c3         1 5X6      -0.083100
     36 O37         23.4230    51.4870    24.7970 oh         1 5X6      -0.657500
     37 C41          9.4880    45.6200    20.7310 c3         1 5X6      -0.055900
     38 C42          5.1010    42.8810    19.6060 c3         1 5X6      -0.055900
     39 H181         8.3640    48.0010    23.0120 ha         1 5X6       0.169000
     40 H161         6.5910    46.8400    22.2570 ha         1 5X6       0.170000
     41 H191        11.2280    47.3090    22.0480 ha         1 5X6       0.172000
     42 H102        -0.1120    40.2380    19.8130 hc         1 5X6       0.035617
     43 H101        -0.4010    40.6490    18.1210 hc         1 5X6       0.035617
     44 H103         1.2270    40.7170    18.7770 hc         1 5X6       0.035617
     45 H111         2.6470    42.1140    19.6400 ha         1 5X6       0.173000
     46 H121         2.6430    44.6250    21.3740 ha         1 5X6       0.174500
     47 H201        10.0820    49.3370    24.0210 ha         1 5X6       0.172000
     48 H141         4.6130    45.6370    21.6770 ha         1 5X6       0.169500
     49 H151         7.1770    44.5310    20.3370 ha         1 5X6       0.173000
     50 H352        21.5340    53.1020    24.3690 hc         1 5X6       0.035617
     51 H353        20.3120    54.1650    25.0620 hc         1 5X6       0.035617
     52 H351        21.9650    54.7400    24.8680 hc         1 5X6       0.035617
     53 H331        23.7750    53.8500    26.1630 hc         1 5X6       0.049450
     54 H332        23.4890    53.1230    27.7240 hc         1 5X6       0.049450
     55 H403        12.0780    50.8070    26.4480 hc         1 5X6       0.042367
     56 H402        12.0890    52.0190    25.1820 hc         1 5X6       0.042367
     57 H401        10.8100    50.8180    25.2300 hc         1 5X6       0.042367
     58 H321        24.7030    51.5670    26.4140 h1         1 5X6       0.030700
     59 H311        23.0010    49.6590    26.4620 hc         1 5X6       0.053700
     60 H312        23.2760    50.5300    27.9410 hc         1 5X6       0.053700
     61 H393        16.9120    53.9090    26.9160 hc         1 5X6       0.041867
     62 H391        15.4330    52.9990    27.1760 hc         1 5X6       0.041867
     63 H392        16.8240    52.7450    28.2220 hc         1 5X6       0.041867
     64 H281        19.0710    53.2160    27.5070 ha         1 5X6       0.173000
     65 H271        18.8320    50.8670    25.5760 ha         1 5X6       0.174500
     66 H211        12.9410    48.5550    23.1140 ha         1 5X6       0.169000
     67 H361        21.5120    54.1780    28.5570 hc         1 5X6       0.035617
     68 H363        22.0790    55.3350    27.3520 hc         1 5X6       0.035617
     69 H362        20.3820    54.8940    27.4010 hc         1 5X6       0.035617
     70 H231        14.7410    49.5120    24.0190 ha         1 5X6       0.170000
     71 H241        14.2770    51.7400    26.0630 ha         1 5X6       0.173000
     72 H251        16.7720    50.3310    24.8870 ha         1 5X6       0.169500
     73 H381        19.6090    49.9410    27.8540 hc         1 5X6       0.042200
     74 H383        20.4650    49.0090    26.6300 hc         1 5X6       0.042200
     75 H382        21.1440    49.1550    28.2350 hc         1 5X6       0.042200
     76 H011         0.7020    42.5820    23.8990 hc         1 5X6       0.042200
     77 H012         2.1440    42.9500    22.9520 hc         1 5X6       0.042200
     78 H013         1.0050    44.2220    23.3710 hc         1 5X6       0.042200
     79 H051        -1.7440    43.7060    19.6340 hc         1 5X6       0.049450
     80 H052        -2.1330    42.1780    18.8550 hc         1 5X6       0.049450
     81 H061        -1.7160    41.0220    21.0620 h1         1 5X6       0.030700
     82 H071        -1.6010    43.8360    22.1940 hc         1 5X6       0.053700
     83 H072        -1.3680    42.3330    23.0570 hc         1 5X6       0.053700
     84 H081        -3.6370    41.9240    21.9870 ho         1 5X6       0.440000
     85 H093         0.2420    44.3170    18.4040 hc         1 5X6       0.035617
     86 H091         1.3510    43.0690    17.8340 hc         1 5X6       0.035617
     87 H092        -0.3350    43.0380    17.3320 hc         1 5X6       0.035617
     88 H371        23.8470    52.2070    24.3200 ho         1 5X6       0.440000
     89 H411        10.5320    45.9220    20.7470 hc         1 5X6       0.042367
     90 H413         9.4450    44.5700    21.0280 hc         1 5X6       0.042367
     91 H412         9.1500    45.6680    19.6940 hc         1 5X6       0.042367
     92 H422         6.1580    43.0520    19.4230 hc         1 5X6       0.041867
     93 H421         5.0000    41.8890    20.0510 hc         1 5X6       0.041867
     94 H423         4.6020    42.8410    18.6350 hc         1 5X6       0.041867
     95 C36         21.3920    54.5040    27.5220 c3         1 5X6      -0.083100
     96 C11          2.2360    42.8640    20.3110 cf         1 5X6      -0.160500
     97 C35         21.3600    53.8670    25.1240 c3         1 5X6      -0.083100
     98 C01          1.0870    43.1750    23.0660 c3         1 5X6      -0.056900
@<TRIPOS>BOND
     1     1     2 2   
     2     1     3 1   
     3     1    37 1   
     4     2     5 1   
     5     2    39 1   
     6     3    11 2   
     7     3    40 1   
     8     4    19 1   
     9     4    21 1   
    10     4    26 2   
    11     5     9 2   
    12     5    41 1   
    13     6    30 1   
    14     6    42 1   
    15     6    43 1   
    16     6    44 1   
    17     7     8 1   
    18     7    46 1   
    19     7    96 2   
    20     8    10 2   
    21     8    38 1   
    22     9    22 1   
    23     9    47 1   
    24    10    11 1   
    25    10    48 1   
    26    11    49 1   
    27    12    13 1   
    28    12    18 1   
    29    12    95 1   
    30    12    97 1   
    31    13    15 1   
    32    13    53 1   
    33    13    54 1   
    34    14    23 1   
    35    14    55 1   
    36    14    56 1   
    37    14    57 1   
    38    15    16 1   
    39    15    36 1   
    40    15    58 1   
    41    16    17 1   
    42    16    59 1   
    43    16    60 1   
    44    17    18 2   
    45    17    27 1   
    46    18    20 1   
    47    19    61 1   
    48    19    62 1   
    49    19    63 1   
    50    20    21 2   
    51    20    64 1   
    52    21    65 1   
    53    22    23 2   
    54    22    66 1   
    55    23    24 1   
    56    24    25 2   
    57    24    70 1   
    58    25    26 1   
    59    25    71 1   
    60    26    72 1   
    61    27    73 1   
    62    27    74 1   
    63    27    75 1   
    64    28    29 2   
    65    28    33 1   
    66    28    98 1   
    67    29    30 1   
    68    29    96 1   
    69    30    31 1   
    70    30    35 1   
    71    31    32 1   
    72    31    79 1   
    73    31    80 1   
    74    32    33 1   
    75    32    34 1   
    76    32    81 1   
    77    33    82 1   
    78    33    83 1   
    79    34    84 1   
    80    35    85 1   
    81    35    86 1   
    82    35    87 1   
    83    36    88 1   
    84    37    89 1   
    85    37    90 1   
    86    37    91 1   
    87    38    92 1   
    88    38    93 1   
    89    38    94 1   
    90    45    96 1   
    91    50    97 1   
    92    51    97 1   
    93    52    97 1   
    94    67    95 1   
    95    68    95 1   
    96    69    95 1   
    97    76    98 1   
    98    77    98 1   
    99    78    98 1   
@<TRIPOS>SUBSTRUCTURE
     1 5X6         1 TEMP              0 ****  ****    0 ROOT
