@<TRIPOS>MOLECULE
5X6
   98    99     1     0     0
SMALL
No Charge or Current Charge


@<TRIPOS>ATOM
      1 C17          8.5970    46.1440    21.6830 ce         1 5X6      -0.061700
      2 C18          9.1280    47.0560    22.5510 cf         1 5X6      -0.177500
      3 C16          7.1430    45.8830    21.6870 ce         1 5X6      -0.176500
      4 C26         17.3170    51.7840    26.2380 ce         1 5X6      -0.060200
      5 C19         10.5310    47.4400    22.6880 cf         1 5X6      -0.171000
      6 C10         -0.2850    40.6790    19.2510 c3         1 5X6      -0.083100
      7 C12          2.8360    43.6650    20.6920 ce         1 5X6      -0.185500
      8 C13          4.3000    43.7060    20.5030 ce         1 5X6      -0.060200
      9 C20         10.9790    48.4020    23.5370 ce         1 5X6      -0.171000
     10 C14          5.0390    44.6650    21.1370 cf         1 5X6      -0.182000
     11 C15          6.4860    44.8610    21.0690 cf         1 5X6      -0.169500
     12 C34         21.8540    53.6680    26.9250 c6         1 5X6       0.005200
     13 C33         23.4080    53.5040    27.0110 c6         1 5X6      -0.086900
     14 C40         12.0340    50.7100    25.2910 c3         1 5X6      -0.055900
     15 C32         23.9730    52.2960    26.2330 c6         1 5X6       0.176300
     16 C31         23.3030    51.0020    26.7390 c6         1 5X6      -0.059700
     17 C30         21.7820    51.0960    26.8820 c2         1 5X6      -0.090900
     18 C29         21.1160    52.2880    26.9670 cf         1 5X6      -0.078700
     19 C39         16.6210    52.8700    27.0510 c3         1 5X6      -0.055900
     20 C28         19.6520    52.3600    27.0500 cf         1 5X6      -0.160500
     21 C27         18.7880    51.7350    26.1990 ce         1 5X6      -0.185500
     22 C21         12.3950    48.7780    23.6840 ce         1 5X6      -0.177500
     23 C22         12.9130    49.7690    24.4700 cf         1 5X6      -0.061700
     24 C23         14.3610    50.0020    24.4910 cf         1 5X6      -0.176500
     25 C24         15.0610    50.7710    25.3730 ce         1 5X6      -0.169500
     26 C25         16.5210    50.9380    25.3340 ce         1 5X6      -0.182000
     27 C38         21.1230    49.7240    26.9580 c3         1 5X6      -0.056900
     28 C02         -0.0930    43.0840    21.7370 c2         1 5X6      -0.090900
     29 C03          0.5140    42.6880    20.5580 cf         1 5X6      -0.078700
     30 C04         -0.3330    42.2370    19.3290 c6         1 5X6       0.005200
     31 C05         -1.8020    42.7460    19.4520 c6         1 5X6      -0.086900
     32 C06         -2.4140    42.4420    20.8350 c6         1 5X6       0.176300
     33 C07         -1.6350    43.1900    21.9360 c6         1 5X6      -0.059700
     34 O08         -3.7910    42.8330    20.8550 oh         1 5X6      -0.657500
     35 C09          0.2770    42.8020    18.0060 c3         1 5X6      -0.083100
     36 O37         23.8140    52.4390    24.8170 oh         1 5X6      -0.657500
     37 C41          9.4350    45.4120    20.6360 c3         1 5X6      -0.055900
     38 C42          4.9080    42.6970    19.5310 c3         1 5X6      -0.055900
     39 H181         8.4380    47.5500    23.2380 ha         1 5X6       0.169000
     40 H161         6.5410    46.5840    22.2690 ha         1 5X6       0.170000
     41 H191        11.2690    46.9160    22.0780 ha         1 5X6       0.172000
     42 H102        -0.6120    40.2140    20.1880 hc         1 5X6       0.035617
     43 H101        -0.9290    40.2990    18.4490 hc         1 5X6       0.035617
     44 H103         0.7290    40.3140    19.0500 hc         1 5X6       0.035617
     45 H111         2.4250    41.7650    19.8720 ha         1 5X6       0.173000
     46 H121         2.3990    44.5510    21.1520 ha         1 5X6       0.174500
     47 H201        10.2470    48.9210    24.1560 ha         1 5X6       0.172000
     48 H141         4.5020    45.3610    21.7840 ha         1 5X6       0.169500
     49 H151         7.0660    44.1270    20.5100 ha         1 5X6       0.173000
     50 H352        21.5950    53.7800    24.7240 hc         1 5X6       0.035617
     51 H353        20.3580    54.6500    25.6190 hc         1 5X6       0.035617
     52 H351        21.9770    55.3370    25.4760 hc         1 5X6       0.035617
     53 H331        23.9090    54.4270    26.6900 hc         1 5X6       0.049450
     54 H332        23.6940    53.3730    28.0640 hc         1 5X6       0.049450
     55 H403        11.8800    50.3220    26.3050 hc         1 5X6       0.042367
     56 H402        12.4710    51.7110    25.3760 hc         1 5X6       0.042367
     57 H401        11.0490    50.8600    24.8370 hc         1 5X6       0.042367
     58 H321        25.0480    52.2230    26.4580 h1         1 5X6       0.030700
     59 H311        23.5700    50.1740    26.0670 hc         1 5X6       0.053700
     60 H312        23.7280    50.7420    27.7180 hc         1 5X6       0.053700
     61 H393        17.2390    53.7700    27.1470 hc         1 5X6       0.041867
     62 H391        15.6860    53.1980    26.5830 hc         1 5X6       0.041867
     63 H392        16.3840    52.5150    28.0610 hc         1 5X6       0.041867
     64 H281        19.2370    52.9760    27.8460 ha         1 5X6       0.173000
     65 H271        19.2170    51.1250    25.4030 ha         1 5X6       0.174500
     66 H211        13.0980    48.1760    23.1050 ha         1 5X6       0.169000
     67 H361        21.5190    54.0510    29.0770 hc         1 5X6       0.035617
     68 H363        22.0040    55.4880    28.1690 hc         1 5X6       0.035617
     69 H362        20.3570    54.8900    28.0370 hc         1 5X6       0.035617
     70 H231        14.9370    49.4840    23.7220 ha         1 5X6       0.170000
     71 H241        14.5290    51.2780    26.1780 ha         1 5X6       0.173000
     72 H251        17.0710    50.3380    24.6080 ha         1 5X6       0.169500
     73 H381        20.1560    49.7530    27.4720 hc         1 5X6       0.042200
     74 H383        20.9620    49.3110    25.9560 hc         1 5X6       0.042200
     75 H382        21.7470    49.0130    27.5130 hc         1 5X6       0.042200
     76 H011         0.1520    43.1500    23.9030 hc         1 5X6       0.042200
     77 H012         1.6700    43.0530    23.0340 hc         1 5X6       0.042200
     78 H013         0.7640    44.5790    23.0600 hc         1 5X6       0.042200
     79 H051        -1.8350    43.8300    19.2780 hc         1 5X6       0.049450
     80 H052        -2.4200    42.2930    18.6650 hc         1 5X6       0.049450
     81 H061        -2.3400    41.3620    21.0260 h1         1 5X6       0.030700
     82 H071        -1.9140    44.2530    21.9370 hc         1 5X6       0.053700
     83 H072        -1.9260    42.7870    22.9160 hc         1 5X6       0.053700
     84 H081        -4.1530    42.5450    21.7220 ho         1 5X6       0.440000
     85 H093         0.3690    43.8940    18.0480 hc         1 5X6       0.035617
     86 H091         1.2730    42.3950    17.7970 hc         1 5X6       0.035617
     87 H092        -0.3540    42.5580    17.1430 hc         1 5X6       0.035617
     88 H371        24.2570    53.2790    24.5700 ho         1 5X6       0.440000
     89 H411        10.3100    45.9920    20.3230 hc         1 5X6       0.042367
     90 H413         9.7920    44.4490    21.0190 hc         1 5X6       0.042367
     91 H412         8.8690    45.2200    19.7180 hc         1 5X6       0.042367
     92 H422         5.8110    43.0790    19.0430 hc         1 5X6       0.041867
     93 H421         5.1740    41.7650    20.0440 hc         1 5X6       0.041867
     94 H423         4.2200    42.4490    18.7150 hc         1 5X6       0.041867
     95 C36         21.4030    54.5720    28.1190 c3         1 5X6      -0.083100
     96 C11          1.9850    42.6500    20.3590 cf         1 5X6      -0.160500
     97 C35         21.4260    54.3990    25.6120 c3         1 5X6      -0.083100
     98 C01          0.6660    43.4890    22.9950 c3         1 5X6      -0.056900
@<TRIPOS>BOND
     1     1     2 2   
     2     1     3 1   
     3     1    37 1   
     4     2     5 1   
     5     2    39 1   
     6     3    11 2   
     7     3    40 1   
     8     4    19 1   
     9     4    21 1   
    10     4    26 2   
    11     5     9 2   
    12     5    41 1   
    13     6    30 1   
    14     6    42 1   
    15     6    43 1   
    16     6    44 1   
    17     7     8 1   
    18     7    46 1   
    19     7    96 2   
    20     8    10 2   
    21     8    38 1   
    22     9    22 1   
    23     9    47 1   
    24    10    11 1   
    25    10    48 1   
    26    11    49 1   
    27    12    13 1   
    28    12    18 1   
    29    12    95 1   
    30    12    97 1   
    31    13    15 1   
    32    13    53 1   
    33    13    54 1   
    34    14    23 1   
    35    14    55 1   
    36    14    56 1   
    37    14    57 1   
    38    15    16 1   
    39    15    36 1   
    40    15    58 1   
    41    16    17 1   
    42    16    59 1   
    43    16    60 1   
    44    17    18 2   
    45    17    27 1   
    46    18    20 1   
    47    19    61 1   
    48    19    62 1   
    49    19    63 1   
    50    20    21 2   
    51    20    64 1   
    52    21    65 1   
    53    22    23 2   
    54    22    66 1   
    55    23    24 1   
    56    24    25 2   
    57    24    70 1   
    58    25    26 1   
    59    25    71 1   
    60    26    72 1   
    61    27    73 1   
    62    27    74 1   
    63    27    75 1   
    64    28    29 2   
    65    28    33 1   
    66    28    98 1   
    67    29    30 1   
    68    29    96 1   
    69    30    31 1   
    70    30    35 1   
    71    31    32 1   
    72    31    79 1   
    73    31    80 1   
    74    32    33 1   
    75    32    34 1   
    76    32    81 1   
    77    33    82 1   
    78    33    83 1   
    79    34    84 1   
    80    35    85 1   
    81    35    86 1   
    82    35    87 1   
    83    36    88 1   
    84    37    89 1   
    85    37    90 1   
    86    37    91 1   
    87    38    92 1   
    88    38    93 1   
    89    38    94 1   
    90    45    96 1   
    91    50    97 1   
    92    51    97 1   
    93    52    97 1   
    94    67    95 1   
    95    68    95 1   
    96    69    95 1   
    97    76    98 1   
    98    77    98 1   
    99    78    98 1   
@<TRIPOS>SUBSTRUCTURE
     1 5X6         1 TEMP              0 ****  ****    0 ROOT
