@<TRIPOS>MOLECULE
5X7
   73    76     1     0     0
SMALL
No Charge or Current Charge


@<TRIPOS>ATOM
      1 N1         -13.0360   -34.2090   -38.7700 nh         1 5X7      -0.794400
      2 N3         -11.2930   -39.5200   -39.6310 nu         1 5X7      -0.878200
      3 C4         -14.1750   -31.8680   -35.8490 c3         1 5X7      -0.086100
      4 C5         -13.1780   -33.7130   -37.3600 c6         1 5X7       0.167300
      5 C6         -12.5860   -35.5280   -39.0210 ca         1 5X7       0.291000
      6 C7         -11.4880   -35.7840   -39.8660 ca         1 5X7      -0.100000
      7 C8         -11.0510   -37.1080   -40.1110 ca         1 5X7      -0.149200
      8 C10         -9.9740   -40.0250   -39.2100 c3         1 5X7       0.216100
      9 C13         -8.7830   -38.2070   -36.0460 ca         1 5X7      -0.101500
     10 C15        -10.0160   -40.1890   -35.3750 ca         1 5X7      -0.101500
     11 C17         -9.0430   -38.6730   -33.5530 c3         1 5X7       0.227100
     12 C20         -6.5020   -41.2850   -32.0920 c6         1 5X7       0.135300
     13 C21         -5.2640   -40.8020   -32.8940 c6         1 5X7       0.131300
     14 C22         -5.2640   -39.2560   -32.9710 c6         1 5X7       0.178300
     15 C24        -12.8110   -37.9360   -38.6610 ca         1 5X7      -0.132000
     16 C26        -12.8360   -33.1110   -39.7740 c6         1 5X7       0.167300
     17 C1         -13.5210   -30.7170   -40.4670 c3         1 5X7      -0.086100
     18 C11         -9.7250   -39.6840   -37.7460 ca         1 5X7      -0.131300
     19 C12         -9.0000   -38.5280   -37.3970 ca         1 5X7      -0.097500
     20 C14         -9.2790   -39.0400   -35.0220 ca         1 5X7      -0.118300
     21 C16        -10.2340   -40.5100   -36.7260 ca         1 5X7      -0.097500
     22 C18         -7.8330   -40.7660   -32.7600 c6         1 5X7       0.174500
     23 C19         -9.0740   -41.2880   -31.9330 c3         1 5X7       0.157600
     24 C2         -13.8430   -31.9350   -39.5680 c6         1 5X7       0.139300
     25 C23         -6.5740   -38.7890   -33.6620 c6         1 5X7       0.166800
     26 C25        -13.2470   -36.6190   -38.4280 ca         1 5X7      -0.121000
     27 C3         -14.1710   -32.5110   -37.2560 c6         1 5X7       0.139300
     28 C9         -11.7070   -38.1920   -39.4910 ca         1 5X7       0.276000
     29 N2          -9.9130   -37.3260   -41.0310 no         1 5X7       0.688200
     30 N4          -7.8080   -39.2610   -32.9530 n3         1 5X7      -0.724600
     31 O1         -13.8180   -31.4740   -38.1990 os         1 5X7      -0.454000
     32 O2         -10.1090   -38.0140   -42.0420 o          1 5X7      -0.391500
     33 O3          -8.9060   -36.6250   -40.8650 o          1 5X7      -0.391500
     34 O5          -6.4570   -42.7290   -31.9860 oh         1 5X7      -0.733000
     35 O6          -4.0520   -41.2840   -32.2820 oh         1 5X7      -0.668000
     36 O7          -4.0950   -38.8090   -33.6820 oh         1 5X7      -0.719000
     37 H1         -12.0480   -40.1860   -39.4680 hn         1 5X7       0.435000
     38 H2         -14.4700   -32.5970   -35.0860 hc         1 5X7       0.047033
     39 H3         -13.1820   -31.4860   -35.5820 hc         1 5X7       0.047033
     40 H4         -14.8830   -31.0320   -35.8010 hc         1 5X7       0.047033
     41 H5         -13.5360   -34.5130   -36.6960 h1         1 5X7       0.065700
     42 H6         -12.1950   -33.3960   -36.9790 h1         1 5X7       0.065700
     43 H7         -10.9670   -34.9550   -40.3350 ha         1 5X7       0.146000
     44 H8          -9.9260   -41.1160   -39.3430 h1         1 5X7       0.071200
     45 H9          -9.1720   -39.5950   -39.8260 h1         1 5X7       0.071200
     46 H10         -8.2250   -37.3080   -35.7950 ha         1 5X7       0.113000
     47 H11        -10.4270   -40.8370   -34.6070 ha         1 5X7       0.113000
     48 H12         -8.9830   -37.5780   -33.4870 h1         1 5X7       0.062700
     49 H13         -9.9320   -38.9430   -32.9690 h1         1 5X7       0.062700
     50 H14         -6.4390   -40.8370   -31.0880 h1         1 5X7       0.072700
     51 H15         -5.3460   -41.2010   -33.9170 h1         1 5X7       0.051700
     52 H16         -5.2550   -38.8530   -31.9460 h1         1 5X7       0.054700
     53 H17        -13.3270   -38.7600   -38.1770 ha         1 5X7       0.119000
     54 H18        -12.9660   -33.5000   -40.7950 h1         1 5X7       0.065700
     55 H19        -11.8110   -32.7180   -39.7010 h1         1 5X7       0.065700
     56 H20        -14.2460   -29.9090   -40.3090 hc         1 5X7       0.047033
     57 H21        -12.5210   -30.3200   -40.2570 hc         1 5X7       0.047033
     58 H22        -13.5580   -30.9920   -41.5270 hc         1 5X7       0.047033
     59 H23         -8.6080   -37.8740   -38.1720 ha         1 5X7       0.118000
     60 H24        -10.8050   -41.4000   -36.9810 ha         1 5X7       0.118000
     61 H25         -7.9020   -41.2400   -33.7500 h1         1 5X7       0.044700
     62 H26        -10.0000   -40.9790   -32.4290 h1         1 5X7       0.021700
     63 H27         -9.0720   -42.3850   -31.9630 h1         1 5X7       0.021700
     64 H28        -14.8600   -32.2830   -39.8040 h1         1 5X7       0.037200
     65 H29         -6.5650   -37.6900   -33.7100 h1         1 5X7       0.051200
     66 H30         -6.5660   -39.1570   -34.6990 h1         1 5X7       0.051200
     67 H31        -14.1060   -36.4470   -37.7870 ha         1 5X7       0.120000
     68 H32        -15.1890   -32.8610   -37.4830 h1         1 5X7       0.037200
     69 H34         -9.9530   -41.1040   -30.1840 ho         1 5X7       0.439000
     70 H35         -7.0550   -42.9790   -31.2420 ho         1 5X7       0.511000
     71 H36         -4.2780   -42.1970   -31.9850 ho         1 5X7       0.461000
     72 H37         -3.3880   -39.4380   -33.3970 ho         1 5X7       0.522000
     73 O4          -9.0860   -40.8430   -30.5640 oh         1 5X7      -0.649000
@<TRIPOS>BOND
     1     1     4 1   
     2     1     5 1   
     3     1    16 1   
     4     2     8 1   
     5     2    28 1   
     6     2    37 1   
     7     3    27 1   
     8     3    38 1   
     9     3    39 1   
    10     3    40 1   
    11     4    27 1   
    12     4    41 1   
    13     4    42 1   
    14     5     6 ar  
    15     5    26 ar  
    16     6     7 ar  
    17     6    43 1   
    18     7    28 ar  
    19     7    29 1   
    20     8    18 1   
    21     8    44 1   
    22     8    45 1   
    23     9    19 ar  
    24     9    20 ar  
    25     9    46 1   
    26    10    20 ar  
    27    10    21 ar  
    28    10    47 1   
    29    11    20 1   
    30    11    30 1   
    31    11    48 1   
    32    11    49 1   
    33    12    13 1   
    34    12    22 1   
    35    12    34 1   
    36    12    50 1   
    37    13    14 1   
    38    13    35 1   
    39    13    51 1   
    40    14    25 1   
    41    14    36 1   
    42    14    52 1   
    43    15    26 ar  
    44    15    28 ar  
    45    15    53 1   
    46    16    24 1   
    47    16    54 1   
    48    16    55 1   
    49    17    24 1   
    50    17    56 1   
    51    17    57 1   
    52    17    58 1   
    53    18    19 ar  
    54    18    21 ar  
    55    19    59 1   
    56    21    60 1   
    57    22    23 1   
    58    22    30 1   
    59    22    61 1   
    60    23    62 1   
    61    23    63 1   
    62    23    73 1   
    63    24    31 1   
    64    24    64 1   
    65    25    30 1   
    66    25    65 1   
    67    25    66 1   
    68    26    67 1   
    69    27    31 1   
    70    27    68 1   
    71    29    32 1   
    72    29    33 1   
    73    34    70 1   
    74    35    71 1   
    75    36    72 1   
    76    69    73 1   
@<TRIPOS>SUBSTRUCTURE
     1 5X7         1 TEMP              0 ****  ****    0 ROOT
