@<TRIPOS>MOLECULE
5X7
   73    76     1     0     0
SMALL
abcg2


@<TRIPOS>ATOM
      1 N1         -12.0040   -33.8820   -38.1670 nh         1 5X7      -0.794400
      2 N3         -11.7640   -39.3510   -39.5760 nu         1 5X7      -0.878200
      3 C4         -14.8780   -32.3850   -36.1790 c3         1 5X7      -0.086100
      4 C5         -12.7540   -33.4460   -37.0070 c6         1 5X7       0.167300
      5 C6         -12.0160   -35.2130   -38.5570 ca         1 5X7       0.291000
      6 C7         -11.1320   -35.6650   -39.5400 ca         1 5X7      -0.100000
      7 C8         -11.1020   -36.9990   -39.9130 ca         1 5X7      -0.149200
      8 C10        -10.4940   -40.0060   -39.2350 c3         1 5X7       0.216100
      9 C13         -8.8740   -38.3480   -36.2280 ca         1 5X7      -0.101500
     10 C15        -10.2420   -40.1400   -35.4480 ca         1 5X7      -0.101500
     11 C17         -9.0170   -38.7100   -33.7370 c3         1 5X7       0.227100
     12 C20         -6.5640   -41.1180   -32.1460 c6         1 5X7       0.135300
     13 C21         -5.3170   -40.7400   -32.9310 c6         1 5X7       0.131300
     14 C22         -5.3530   -39.2620   -33.2610 c6         1 5X7       0.178300
     15 C24        -12.7330   -37.5200   -38.3000 ca         1 5X7      -0.132000
     16 C26        -11.9570   -32.8310   -39.1700 c6         1 5X7       0.167300
     17 C1         -13.3350   -31.1950   -40.4960 c3         1 5X7      -0.086100
     18 C11        -10.0490   -39.7310   -37.8230 ca         1 5X7      -0.131300
     19 C12         -9.1900   -38.6740   -37.5390 ca         1 5X7      -0.097500
     20 C14         -9.3910   -39.0760   -35.1580 ca         1 5X7      -0.118300
     21 C16        -10.5710   -40.4590   -36.7580 ca         1 5X7      -0.097500
     22 C18         -7.8460   -40.7470   -32.9170 c6         1 5X7       0.174500
     23 C19         -9.0690   -41.1590   -32.1120 c3         1 5X7       0.157600
     24 C2         -13.3630   -32.3580   -39.5270 c6         1 5X7       0.139300
     25 C23         -6.6410   -38.9590   -34.0030 c6         1 5X7       0.166800
     26 C25        -12.8380   -36.1820   -37.9660 ca         1 5X7      -0.121000
     27 C3         -14.1510   -32.9590   -37.3760 c6         1 5X7       0.139300
     28 C9         -11.8670   -37.9870   -39.2880 ca         1 5X7       0.276000
     29 N2         -10.2020   -37.3320   -41.0080 no         1 5X7       0.688200
     30 N4          -7.8010   -39.3190   -33.2130 n3         1 5X7      -0.724600
     31 O1         -14.0540   -31.9470   -38.3620 os         1 5X7      -0.454000
     32 O2         -10.6130   -38.0590   -41.8790 o          1 5X7      -0.391500
     33 O3          -9.0960   -36.8400   -40.9990 o          1 5X7      -0.391500
     34 O5          -6.4870   -42.5080   -31.9060 oh         1 5X7      -0.733000
     35 O6          -4.1420   -41.0050   -32.2020 oh         1 5X7      -0.668000
     36 O7          -4.2860   -38.8700   -34.0920 oh         1 5X7      -0.719000
     37 H1         -12.5260   -39.8500   -39.1360 hn         1 5X7       0.435000
     38 H2         -15.0050   -33.1510   -35.4140 hc         1 5X7       0.047033
     39 H3         -14.3190   -31.5570   -35.7390 hc         1 5X7       0.047033
     40 H4         -15.8690   -32.0230   -36.4540 hc         1 5X7       0.047033
     41 H5         -12.8000   -34.2350   -36.2560 h1         1 5X7       0.065700
     42 H6         -12.2050   -32.6140   -36.5500 h1         1 5X7       0.065700
     43 H7         -10.4590   -34.9750   -40.0290 ha         1 5X7       0.146000
     44 H8         -10.6470   -41.0740   -39.3900 h1         1 5X7       0.071200
     45 H9          -9.7160   -39.7060   -39.9390 h1         1 5X7       0.071200
     46 H10         -8.2230   -37.5040   -36.0350 ha         1 5X7       0.113000
     47 H11        -10.6750   -40.7200   -34.6430 ha         1 5X7       0.113000
     48 H12         -8.8700   -37.6270   -33.6870 h1         1 5X7       0.062700
     49 H13         -9.8460   -38.9290   -33.0640 h1         1 5X7       0.062700
     50 H14         -6.5560   -40.5570   -31.2030 h1         1 5X7       0.072700
     51 H15         -5.3250   -41.3040   -33.8800 h1         1 5X7       0.051700
     52 H16         -5.3500   -38.6920   -32.3190 h1         1 5X7       0.054700
     53 H17        -13.3510   -38.2360   -37.7720 ha         1 5X7       0.119000
     54 H18        -11.4480   -33.1710   -40.0700 h1         1 5X7       0.065700
     55 H19        -11.3770   -31.9900   -38.7750 h1         1 5X7       0.065700
     56 H20        -14.3440   -30.8630   -40.7410 hc         1 5X7       0.047033
     57 H21        -12.7860   -30.3480   -40.0820 hc         1 5X7       0.047033
     58 H22        -12.8480   -31.4930   -41.4240 hc         1 5X7       0.047033
     59 H23         -8.7670   -38.0900   -38.3490 ha         1 5X7       0.118000
     60 H24        -11.2490   -41.2830   -36.9530 ha         1 5X7       0.118000
     61 H25         -7.8670   -41.3530   -33.8420 h1         1 5X7       0.044700
     62 H26         -9.9840   -41.0000   -32.6940 h1         1 5X7       0.021700
     63 H27         -9.0090   -42.2430   -31.9550 h1         1 5X7       0.021700
     64 H28        -13.8970   -33.2040   -39.9890 h1         1 5X7       0.037200
     65 H29         -6.6840   -37.8880   -34.2130 h1         1 5X7       0.051200
     66 H30         -6.6150   -39.4760   -34.9770 h1         1 5X7       0.051200
     67 H31        -13.5680   -35.9100   -37.2170 ha         1 5X7       0.120000
     68 H32        -14.7290   -33.8060   -37.7800 h1         1 5X7       0.037200
     69 H34         -9.8310   -40.8010   -30.3680 ho         1 5X7       0.439000
     70 H35         -6.8670   -42.7020   -31.0450 ho         1 5X7       0.511000
     71 H36         -4.1360   -41.9410   -31.9780 ho         1 5X7       0.461000
     72 H37         -3.4610   -39.0740   -33.6400 ho         1 5X7       0.522000
     73 O4          -9.1070   -40.4510   -30.8950 oh         1 5X7      -0.649000
@<TRIPOS>BOND
     1     1     4 1   
     2     1     5 1   
     3     1    16 1   
     4     2     8 1   
     5     2    28 1   
     6     2    37 1   
     7     3    27 1   
     8     3    38 1   
     9     3    39 1   
    10     3    40 1   
    11     4    27 1   
    12     4    41 1   
    13     4    42 1   
    14     5     6 ar  
    15     5    26 ar  
    16     6     7 ar  
    17     6    43 1   
    18     7    28 ar  
    19     7    29 1   
    20     8    18 1   
    21     8    44 1   
    22     8    45 1   
    23     9    19 ar  
    24     9    20 ar  
    25     9    46 1   
    26    10    20 ar  
    27    10    21 ar  
    28    10    47 1   
    29    11    20 1   
    30    11    30 1   
    31    11    48 1   
    32    11    49 1   
    33    12    13 1   
    34    12    22 1   
    35    12    34 1   
    36    12    50 1   
    37    13    14 1   
    38    13    35 1   
    39    13    51 1   
    40    14    25 1   
    41    14    36 1   
    42    14    52 1   
    43    15    26 ar  
    44    15    28 ar  
    45    15    53 1   
    46    16    24 1   
    47    16    54 1   
    48    16    55 1   
    49    17    24 1   
    50    17    56 1   
    51    17    57 1   
    52    17    58 1   
    53    18    19 ar  
    54    18    21 ar  
    55    19    59 1   
    56    21    60 1   
    57    22    23 1   
    58    22    30 1   
    59    22    61 1   
    60    23    62 1   
    61    23    63 1   
    62    23    73 1   
    63    24    31 1   
    64    24    64 1   
    65    25    30 1   
    66    25    65 1   
    67    25    66 1   
    68    26    67 1   
    69    27    31 1   
    70    27    68 1   
    71    29    32 1   
    72    29    33 1   
    73    34    70 1   
    74    35    71 1   
    75    36    72 1   
    76    69    73 1   
@<TRIPOS>SUBSTRUCTURE
     1 5X7         1 TEMP              0 ****  ****    0 ROOT
