@<TRIPOS>MOLECULE
5X8
   42    44     1     0     0
SMALL
No Charge or Current Charge


@<TRIPOS>ATOM
      1 N1          -4.9050    -2.1590    -1.0530 nb         1 5X8      -0.311000
      2 C5          -3.0500    -1.5530     0.3410 ca         1 5X8      -0.093600
      3 C8          -1.4390    -0.4980     1.3050 cc         1 5X8       0.425700
      4 C2          -4.7970    -0.9110    -1.5700 ca         1 5X8       0.167900
      5 C6          -4.0220    -2.4790    -0.0940 ca         1 5X8       0.441900
      6 N3          -3.8970     0.0380    -1.2160 nb         1 5X8      -0.212000
      7 C4          -3.0270    -0.3140    -0.2490 ca         1 5X8       0.124500
      8 C            5.5770    -2.0510     0.2320 c          1 5X8       0.725000
      9 O            5.1980    -2.7500     1.1640 o          1 5X8      -0.719000
     10 CA           4.4920    -1.4150    -0.7240 c3         1 5X8       0.025500
     11 N            3.6210    -2.3760    -1.5030 n8         1 5X8      -0.984200
     12 CB           3.6190    -0.4070     0.0690 c3         1 5X8       0.062600
     13 SG           2.4250     0.4890    -1.0390 ss         1 5X8      -0.470000
     14 C10          0.5530     2.5510    -0.4280 c5         1 5X8       0.182300
     15 O4          -0.5660     1.7640    -0.9080 os         1 5X8      -0.424000
     16 C3          -0.0890     3.5560     0.5830 c5         1 5X8       0.107300
     17 O3          -0.7890     4.6360    -0.0490 oh         1 5X8      -0.706000
     18 C9          -1.0980     2.6180     1.3030 c5         1 5X8       0.076300
     19 O2          -2.1290     3.3820     1.9630 oh         1 5X8      -0.696000
     20 C1          -1.6110     1.7470     0.0940 c5         1 5X8       0.320300
     21 N9          -2.0080     0.3630     0.3590 na         1 5X8      -0.293300
     22 N7          -2.0640    -1.6920     1.3220 nd         1 5X8      -0.556100
     23 N6          -4.1320    -3.7290     0.4280 nv         1 5X8      -1.063900
     24 H1          -0.6010    -0.2130     1.9310 h5         1 5X8       0.098800
     25 H2          -5.5070    -0.6420    -2.3500 h5         1 5X8       0.037100
     26 H4           5.0500    -0.8250    -1.4640 h1         1 5X8       0.060700
     27 H5           3.1440    -2.9980    -0.8400 hn         1 5X8       0.384500
     28 H6           2.8550    -1.8290    -1.9140 hn         1 5X8       0.384500
     29 H8           3.0570    -0.9350     0.8510 h1         1 5X8       0.061200
     30 H9           4.2710     0.3290     0.5580 h1         1 5X8       0.061200
     31 H10          1.1860     1.0100     0.9940 h1         1 5X8       0.056700
     32 H11          2.4130     2.2420     0.6490 h1         1 5X8       0.056700
     33 H12          1.0120     3.0830    -1.2730 h1         1 5X8       0.105700
     34 H13          0.6590     3.9500     1.2850 h1         1 5X8       0.055700
     35 H14         -1.5820     4.7640     0.5310 ho         1 5X8       0.516000
     36 H15         -0.5630     2.0000     2.0360 h1         1 5X8       0.061700
     37 H16         -2.6200     2.7730     2.5660 ho         1 5X8       0.509000
     38 H17         -2.4980     2.2340    -0.3330 h2         1 5X8       0.114700
     39 H18         -5.0070    -4.2280     0.2900 hn         1 5X8       0.501000
     40 H19         -3.6280    -3.9170     1.2920 hn         1 5X8       0.501000
     41 C7           1.6290     1.6190     0.1980 c3         1 5X8       0.023600
     42 OXT          6.7600    -1.8640    -0.0260 o          1 5X8      -0.719000
@<TRIPOS>BOND
     1     1     4 ar  
     2     1     5 ar  
     3     2     5 ar  
     4     2     7 ar  
     5     2    22 1   
     6     3    21 1   
     7     3    22 2   
     8     3    24 1   
     9     4     6 ar  
    10     4    25 1   
    11     5    23 1   
    12     6     7 ar  
    13     7    21 1   
    14     8     9 1   
    15     8    10 1   
    16     8    42 1   
    17    10    11 1   
    18    10    12 1   
    19    10    26 1   
    20    11    27 1   
    21    11    28 1   
    22    12    13 1   
    23    12    29 1   
    24    12    30 1   
    25    13    41 1   
    26    14    15 1   
    27    14    16 1   
    28    14    33 1   
    29    14    41 1   
    30    15    20 1   
    31    16    17 1   
    32    16    18 1   
    33    16    34 1   
    34    17    35 1   
    35    18    19 1   
    36    18    20 1   
    37    18    36 1   
    38    19    37 1   
    39    20    21 1   
    40    20    38 1   
    41    23    39 1   
    42    23    40 1   
    43    31    41 1   
    44    32    41 1   
@<TRIPOS>SUBSTRUCTURE
     1 5X8         1 TEMP              0 ****  ****    0 ROOT
