@<TRIPOS>MOLECULE
5X8
   42    44     1     0     0
SMALL
bcc


@<TRIPOS>ATOM
      1 N1          -5.2550    -1.7510    -0.2450 nb         1 5X8      -0.837000
      2 C5          -2.9110    -1.6240    -0.0920 ca         1 5X8      -0.224200
      3 C8          -0.9610    -0.8150    -0.0540 cc         1 5X8       0.425700
      4 C2          -5.2500    -0.4320    -0.4200 ca         1 5X8       0.693900
      5 C6          -4.0910    -2.3890    -0.0770 ca         1 5X8       0.770200
      6 N3          -4.2160     0.3910    -0.4450 nb         1 5X8      -0.738000
      7 C4          -3.0660    -0.2580    -0.2740 ca         1 5X8       0.452800
      8 C            5.4020    -2.0170     0.3480 c          1 5X8       0.935600
      9 O            5.2310    -2.9780     1.1190 o          1 5X8      -0.824300
     10 CA           4.1730    -1.5270    -0.4610 c3         1 5X8       0.025500
     11 N            3.1150    -2.5160    -0.4630 n8         1 5X8      -0.873800
     12 CB           3.7680    -0.1560     0.1020 c3         1 5X8       0.014700
     13 SG           2.4470     0.5770    -0.9110 ss         1 5X8      -0.374200
     14 C10          0.6830     2.6040    -0.3770 c5         1 5X8       0.159100
     15 O4          -0.2580     1.7760    -1.0660 os         1 5X8      -0.377600
     16 C3          -0.1400     3.3650     0.6540 c5         1 5X8       0.084100
     17 O3          -0.7450     4.4620     0.0240 oh         1 5X8      -0.583800
     18 C9          -1.1820     2.3040     1.0240 c5         1 5X8       0.053100
     19 O2          -2.3760     2.8100     1.5420 oh         1 5X8      -0.573800
     20 C1          -1.4420     1.6490    -0.3370 c5         1 5X8       0.267800
     21 N9          -1.8000     0.2500    -0.2460 na         1 5X8      -0.264000
     22 N7          -1.5870    -1.9510     0.0400 nd         1 5X8      -0.556100
     23 N6          -4.0900    -3.7150     0.0810 nv         1 5X8      -0.953500
     24 H1           0.1130    -0.6960    -0.0270 h5         1 5X8       0.098800
     25 H2          -6.2260     0.0230    -0.5560 h5         1 5X8       0.037100
     26 H4           4.5040    -1.3750    -1.4950 h1         1 5X8       0.060700
     27 H5           2.9270    -2.7990     0.4900 hn         1 5X8       0.329300
     28 H6           2.2600    -2.1150    -0.8300 hn         1 5X8       0.329300
     29 H8           3.3930    -0.2710     1.1230 h1         1 5X8       0.061200
     30 H9           4.6230     0.5190     0.1230 h1         1 5X8       0.061200
     31 H10          1.4300     1.2490     1.1610 h1         1 5X8       0.056700
     32 H11          2.5790     2.4550     0.5920 h1         1 5X8       0.056700
     33 H12          1.1300     3.2800    -1.1100 h1         1 5X8       0.105700
     34 H13          0.4650     3.6680     1.5190 h1         1 5X8       0.055700
     35 H14         -1.5130     4.7200     0.5470 ho         1 5X8       0.417000
     36 H15         -0.7280     1.5730     1.7030 h1         1 5X8       0.061700
     37 H16         -2.2760     2.9280     2.4920 ho         1 5X8       0.410000
     38 H17         -2.2760     2.1470    -0.8430 h2         1 5X8       0.114700
     39 H18         -4.9600    -4.2050     0.1980 hn         1 5X8       0.445800
     40 H19         -3.2430    -4.2020     0.3160 hn         1 5X8       0.445800
     41 C7           1.7840     1.7790     0.2720 c3         1 5X8      -0.024300
     42 OXT          6.4550    -1.3740     0.1700 o          1 5X8      -0.824300
@<TRIPOS>BOND
     1     1     4 ar  
     2     1     5 ar  
     3     2     5 ar  
     4     2     7 ar  
     5     2    22 1   
     6     3    21 1   
     7     3    22 2   
     8     3    24 1   
     9     4     6 ar  
    10     4    25 1   
    11     5    23 1   
    12     6     7 ar  
    13     7    21 1   
    14     8     9 1   
    15     8    10 1   
    16     8    42 1   
    17    10    11 1   
    18    10    12 1   
    19    10    26 1   
    20    11    27 1   
    21    11    28 1   
    22    12    13 1   
    23    12    29 1   
    24    12    30 1   
    25    13    41 1   
    26    14    15 1   
    27    14    16 1   
    28    14    33 1   
    29    14    41 1   
    30    15    20 1   
    31    16    17 1   
    32    16    18 1   
    33    16    34 1   
    34    17    35 1   
    35    18    19 1   
    36    18    20 1   
    37    18    36 1   
    38    19    37 1   
    39    20    21 1   
    40    20    38 1   
    41    23    39 1   
    42    23    40 1   
    43    31    41 1   
    44    32    41 1   
@<TRIPOS>SUBSTRUCTURE
     1 5X8         1 TEMP              0 ****  ****    0 ROOT
