@<TRIPOS>MOLECULE
5X9
   57    61     1     0     0
SMALL
bcc


@<TRIPOS>ATOM
      1 C1           8.9400    64.6480    28.3830 c3         1 5X9       0.085300
      2 C3          10.5350    66.4120    28.8990 c3         1 5X9       0.085300
      3 C6          11.5880    64.9000    31.0730 ca         1 5X9      -0.138600
      4 C7          11.2820    65.6140    32.2260 ca         1 5X9      -0.109000
      5 C8          12.3070    66.0690    33.0430 ca         1 5X9      -0.139000
      6 C10         13.9500    65.0910    31.5660 cp         1 5X9      -0.023000
      7 C11         12.9130    64.6330    30.7530 ca         1 5X9      -0.086000
      8 C12         15.3580    64.8230    31.2100 cp         1 5X9      -0.038000
      9 C13         16.3000    64.5170    32.1920 ca         1 5X9      -0.136000
     10 C14         17.6210    64.2790    31.8470 ca         1 5X9      -0.130000
     11 C15         18.0240    64.3240    30.5220 ca         1 5X9      -0.118000
     12 C16         17.0880    64.6230    29.5400 ca         1 5X9       0.053800
     13 N18         17.4930    64.6740    28.1900 na         1 5X9       0.132300
     14 C21         17.6650    64.4710    26.0140 cc         1 5X9      -0.275900
     15 C22         17.4610    64.1760    24.5550 c          1 5X9       0.953200
     16 C25         16.8780    64.1370    27.1000 cd         1 5X9      -0.054600
     17 C26         15.6540    63.3190    27.1970 cx         1 5X9      -0.029400
     18 C27         15.5790    62.1720    28.1630 cx         1 5X9      -0.137400
     19 C28         15.6700    61.9030    26.6970 cx         1 5X9      -0.098000
     20 N2          10.0250    65.0980    29.2290 n          1 5X9      -0.471800
     21 C4          10.4810    64.3310    30.2340 c          1 5X9       0.686700
     22 O5          10.0450    63.2180    30.4970 o          1 5X9      -0.592100
     23 C9          13.6290    65.8120    32.7170 ca         1 5X9      -0.113000
     24 C17         15.7700    64.8870    29.8810 ca         1 5X9      -0.123000
     25 N19         18.6290    65.3120    27.8770 nd         1 5X9      -0.571800
     26 C20         18.7390    65.1900    26.5730 cc         1 5X9       0.337200
     27 O23         16.3490    63.7220    24.2160 o          1 5X9      -0.834800
     28 O24         18.4300    64.4340    23.8120 o          1 5X9      -0.834800
     29 C29         14.5080    61.3650    25.9690 cc         1 5X9       0.299600
     30 C30         14.2530    61.3780    24.6190 cd         1 5X9      -0.191600
     31 N31         13.0730    60.7510    24.4990 na         1 5X9       0.087400
     32 C32         12.3050    60.5100    23.2980 c3         1 5X9       0.041600
     33 N33         12.6130    60.3780    25.6800 nd         1 5X9      -0.248800
     34 N34         13.4730    60.7390    26.5710 nc         1 5X9      -0.374000
     35 H38          8.6040    63.6610    28.6810 h1         1 5X9       0.042200
     36 H39          8.0990    65.3410    28.4500 h1         1 5X9       0.042200
     37 H37          9.2650    64.6110    27.3420 h1         1 5X9       0.042200
     38 H41         11.3630    66.6960    29.5390 h1         1 5X9       0.042200
     39 H42         10.8840    66.4280    27.8650 h1         1 5X9       0.042200
     40 H40          9.7480    67.1610    29.0030 h1         1 5X9       0.042200
     41 H43         10.2510    65.8250    32.4810 ha         1 5X9       0.131000
     42 H44         12.0730    66.6350    33.9350 ha         1 5X9       0.126000
     43 H46         13.1420    64.0580    29.8630 ha         1 5X9       0.155000
     44 H47         15.9980    64.4470    33.2290 ha         1 5X9       0.123000
     45 H48         18.3420    64.0360    32.6170 ha         1 5X9       0.124000
     46 H49         19.0520    64.1210    30.2510 ha         1 5X9       0.154000
     47 H35         14.7240    63.8550    27.0310 hc         1 5X9       0.087700
     48 H52         14.6340    62.0020    28.6610 hc         1 5X9       0.072200
     49 H53         16.4480    61.9490    28.7710 hc         1 5X9       0.072200
     50 H36         16.6320    61.5590    26.3340 hc         1 5X9       0.101700
     51 H45         14.4190    66.1940    33.3520 ha         1 5X9       0.132000
     52 H50         15.0640    65.1700    29.1110 ha         1 5X9       0.149000
     53 H51         19.5790    65.6290    26.0580 h4         1 5X9       0.039100
     54 H54         14.8030    61.7820    23.7870 h4         1 5X9       0.227000
     55 H56         11.5110    59.8070    23.5330 h1         1 5X9       0.053367
     56 H57         11.8680    61.4370    22.9320 h1         1 5X9       0.053367
     57 H55         12.9440    60.0850    22.5290 h1         1 5X9       0.053367
@<TRIPOS>BOND
     1     1    20 1   
     2     1    35 1   
     3     1    36 1   
     4     1    37 1   
     5     2    20 1   
     6     2    38 1   
     7     2    39 1   
     8     2    40 1   
     9     3     4 ar  
    10     3     7 ar  
    11     3    21 1   
    12     4     5 ar  
    13     4    41 1   
    14     5    23 ar  
    15     5    42 1   
    16     6     7 ar  
    17     6     8 1   
    18     6    23 ar  
    19     7    43 1   
    20     8     9 ar  
    21     8    24 ar  
    22     9    10 ar  
    23     9    44 1   
    24    10    11 ar  
    25    10    45 1   
    26    11    12 ar  
    27    11    46 1   
    28    12    13 1   
    29    12    24 ar  
    30    13    16 1   
    31    13    25 1   
    32    14    15 1   
    33    14    16 2   
    34    14    26 1   
    35    15    27 1   
    36    15    28 1   
    37    16    17 1   
    38    17    18 1   
    39    17    19 1   
    40    17    47 1   
    41    18    19 1   
    42    18    48 1   
    43    18    49 1   
    44    19    29 1   
    45    19    50 1   
    46    20    21 1   
    47    21    22 2   
    48    23    51 1   
    49    24    52 1   
    50    25    26 2   
    51    26    53 1   
    52    29    30 2   
    53    29    34 1   
    54    30    31 1   
    55    30    54 1   
    56    31    32 1   
    57    31    33 1   
    58    32    55 1   
    59    32    56 1   
    60    32    57 1   
    61    33    34 2   
@<TRIPOS>SUBSTRUCTURE
     1 5X9         1 TEMP              0 ****  ****    0 ROOT
