@<TRIPOS>MOLECULE
5X9
   57    61     1     0     0
SMALL
No Charge or Current Charge


@<TRIPOS>ATOM
      1 C1           9.8410    63.6410    27.6100 c3         1 5X9       0.085300
      2 C3          11.6170    65.3810    27.9000 c3         1 5X9       0.085300
      3 C6          11.5030    64.8930    30.8860 ca         1 5X9      -0.138600
      4 C7          11.1200    65.4700    32.1160 ca         1 5X9      -0.091000
      5 C8          12.0900    65.8790    33.0470 ca         1 5X9      -0.121000
      6 C10         13.8740    65.1170    31.5520 cp         1 5X9      -0.023000
      7 C11         12.8800    64.7070    30.6290 ca         1 5X9      -0.068000
      8 C12         15.3170    64.8940    31.2440 cp         1 5X9      -0.038000
      9 C13         16.2190    64.4160    32.2240 ca         1 5X9      -0.118000
     10 C14         17.5570    64.1390    31.8980 ca         1 5X9      -0.112000
     11 C15         18.0130    64.3210    30.5810 ca         1 5X9      -0.100000
     12 C16         17.1390    64.8000    29.5870 ca         1 5X9       0.053800
     13 N18         17.5910    64.9620    28.2710 na         1 5X9       0.183000
     14 C21         17.5660    64.7250    26.1230 cc         1 5X9      -0.210600
     15 C22         17.3030    64.4530    24.6900 c          1 5X9       0.742600
     16 C25         16.8750    64.3200    27.2420 cd         1 5X9      -0.105300
     17 C26         15.6700    63.4400    27.3300 cx         1 5X9      -0.029400
     18 C27         15.6700    62.2570    28.2750 cx         1 5X9      -0.137400
     19 C28         15.6470    62.0260    26.7850 cx         1 5X9      -0.098000
     20 N2          10.7530    64.3550    28.5290 n          1 5X9      -0.404800
     21 C4          10.4410    64.4190    29.9110 c          1 5X9       0.619700
     22 O5           9.3590    64.0140    30.3220 o          1 5X9      -0.592100
     23 C9          13.4550    65.7050    32.7680 ca         1 5X9      -0.095000
     24 C17         15.8090    65.1110    29.9360 ca         1 5X9      -0.105000
     25 N19         18.6940    65.6930    27.8730 nd         1 5X9      -0.571800
     26 C20         18.6380    65.5220    26.5670 cc         1 5X9       0.271900
     27 O23         16.3140    63.8170    24.3620 o          1 5X9      -0.729500
     28 O24         18.0840    64.9100    23.8680 o          1 5X9      -0.729500
     29 C29         14.4130    61.5170    26.1610 cc         1 5X9       0.234300
     30 C30         13.4940    62.1910    25.4160 cd         1 5X9      -0.159000
     31 N31         12.5440    61.2420    25.1240 na         1 5X9       0.108800
     32 C32         11.3090    61.4150    24.3490 c3         1 5X9       0.070900
     33 N33         12.8900    60.0360    25.6740 nd         1 5X9      -0.248800
     34 N34         14.0260    60.2110    26.3010 nc         1 5X9      -0.374000
     35 H38          9.6010    62.6500    28.0170 h1         1 5X9       0.042200
     36 H39          8.9140    64.2160    27.4850 h1         1 5X9       0.042200
     37 H37         10.3190    63.5100    26.6310 h1         1 5X9       0.042200
     38 H41         12.5750    64.9320    27.6100 h1         1 5X9       0.042200
     39 H42         11.1310    65.7810    27.0010 h1         1 5X9       0.042200
     40 H40         11.7990    66.2150    28.5900 h1         1 5X9       0.042200
     41 H43         10.0660    65.6070    32.3500 ha         1 5X9       0.113000
     42 H44         11.7820    66.3300    33.9880 ha         1 5X9       0.108000
     43 H46         13.1950    64.1970    29.7230 ha         1 5X9       0.137000
     44 H47         15.8710    64.2370    33.2390 ha         1 5X9       0.105000
     45 H48         18.2360    63.7650    32.6610 ha         1 5X9       0.106000
     46 H49         19.0450    64.0860    30.3290 ha         1 5X9       0.136000
     47 H35         14.7420    64.0040    27.2720 hc         1 5X9       0.087700
     48 H52         14.7610    62.0630    28.8390 hc         1 5X9       0.072200
     49 H53         16.5910    62.0220    28.8040 hc         1 5X9       0.072200
     50 H36         16.5550    61.6480    26.3230 hc         1 5X9       0.101700
     51 H45         14.1950    66.0290    33.4960 ha         1 5X9       0.114000
     52 H50         15.1410    65.5080    29.1770 ha         1 5X9       0.131000
     53 H51         19.3890    66.0050    25.9550 h4         1 5X9       0.039100
     54 H54         13.4520    63.2210    25.0910 h4         1 5X9       0.209000
     55 H56         10.4450    61.1700    24.9780 h1         1 5X9       0.053367
     56 H57         11.2270    62.4540    24.0090 h1         1 5X9       0.053367
     57 H55         11.3270    60.7480    23.4780 h1         1 5X9       0.053367
@<TRIPOS>BOND
     1     1    20 1   
     2     1    35 1   
     3     1    36 1   
     4     1    37 1   
     5     2    20 1   
     6     2    38 1   
     7     2    39 1   
     8     2    40 1   
     9     3     4 ar  
    10     3     7 ar  
    11     3    21 1   
    12     4     5 ar  
    13     4    41 1   
    14     5    23 ar  
    15     5    42 1   
    16     6     7 ar  
    17     6     8 1   
    18     6    23 ar  
    19     7    43 1   
    20     8     9 ar  
    21     8    24 ar  
    22     9    10 ar  
    23     9    44 1   
    24    10    11 ar  
    25    10    45 1   
    26    11    12 ar  
    27    11    46 1   
    28    12    13 1   
    29    12    24 ar  
    30    13    16 1   
    31    13    25 1   
    32    14    15 1   
    33    14    16 2   
    34    14    26 1   
    35    15    27 1   
    36    15    28 1   
    37    16    17 1   
    38    17    18 1   
    39    17    19 1   
    40    17    47 1   
    41    18    19 1   
    42    18    48 1   
    43    18    49 1   
    44    19    29 1   
    45    19    50 1   
    46    20    21 1   
    47    21    22 2   
    48    23    51 1   
    49    24    52 1   
    50    25    26 2   
    51    26    53 1   
    52    29    30 2   
    53    29    34 1   
    54    30    31 1   
    55    30    54 1   
    56    31    32 1   
    57    31    33 1   
    58    32    55 1   
    59    32    56 1   
    60    32    57 1   
    61    33    34 2   
@<TRIPOS>SUBSTRUCTURE
     1 5X9         1 TEMP              0 ****  ****    0 ROOT
