@<TRIPOS>MOLECULE
5XA
   21    20     1     0     0
SMALL
No Charge or Current Charge


@<TRIPOS>ATOM
      1 O8          -3.8150    -0.2950     0.7180 oh         1 5XA      -0.420100
      2 N7          -2.6060     0.4600     0.4630 ns         1 5XA      -0.395400
      3 C6          -1.7460     0.1090    -0.5710 c          1 5XA       0.603100
      4 O9          -2.0640    -0.6770    -1.4550 o          1 5XA      -0.574100
      5 C5          -0.3840     0.8170    -0.5540 c3         1 5XA      -0.156400
      6 C4           0.7560    -0.1460    -0.1400 c3         1 5XA      -0.068400
      7 C3           2.1420     0.5360    -0.1120 c3         1 5XA      -0.080400
      8 C2           3.2750    -0.4270     0.2990 c3         1 5XA       0.149800
      9 N1           4.5830     0.2540     0.3200 n8         1 5XA      -0.996200
     10 H1          -4.5130     0.3990     0.7890 ho         1 5XA       0.442000
     11 H2          -2.2460     1.0100     1.2420 hn         1 5XA       0.336500
     12 H3          -0.1730     1.1910    -1.5630 hc         1 5XA       0.058700
     13 H4          -0.4060     1.6540     0.1540 hc         1 5XA       0.058700
     14 H5           0.5370    -0.5590     0.8530 hc         1 5XA       0.055200
     15 H6           0.7860    -0.9930    -0.8380 hc         1 5XA       0.055200
     16 H7           2.3600     0.9480    -1.1050 hc         1 5XA       0.045200
     17 H8           2.1140     1.3800     0.5890 hc         1 5XA       0.045200
     18 H9           3.0730    -0.8300     1.3020 h1         1 5XA       0.029700
     19 H10          3.3250    -1.2650    -0.4090 h1         1 5XA       0.029700
     20 H11          5.3150    -0.4340     0.5350 hn         1 5XA       0.392000
     21 H12          4.8150     0.5600    -0.6330 hn         1 5XA       0.392000
@<TRIPOS>BOND
     1     1     2 1   
     2     1    10 1   
     3     2     3 1   
     4     2    11 1   
     5     3     4 2   
     6     3     5 1   
     7     5     6 1   
     8     5    12 1   
     9     5    13 1   
    10     6     7 1   
    11     6    14 1   
    12     6    15 1   
    13     7     8 1   
    14     7    16 1   
    15     7    17 1   
    16     8     9 1   
    17     8    18 1   
    18     8    19 1   
    19     9    20 1   
    20     9    21 1   
@<TRIPOS>SUBSTRUCTURE
     1 5XA         1 TEMP              0 ****  ****    0 ROOT
