@<TRIPOS>MOLECULE
5XA
   21    20     1     0     0
SMALL
bcc


@<TRIPOS>ATOM
      1 O8          -3.9060     0.0150     0.5310 oh         1 5XA      -0.381100
      2 N7          -2.6800     0.5970     0.4250 ns         1 5XA      -0.462400
      3 C6          -1.6990    -0.0010    -0.2740 c          1 5XA       0.670100
      4 O9          -1.8720    -1.0120    -0.9350 o          1 5XA      -0.574100
      5 C5          -0.3750     0.7240    -0.2010 c3         1 5XA      -0.156400
      6 C4           0.8010    -0.2290    -0.0180 c3         1 5XA      -0.068400
      7 C3           2.1350     0.5050    -0.0290 c3         1 5XA      -0.080400
      8 C2           3.3180    -0.4370     0.1320 c3         1 5XA       0.149800
      9 N1           4.5770     0.2960     0.1050 n8         1 5XA      -0.885800
     10 H1          -4.4520     0.4020    -0.1660 ho         1 5XA       0.403000
     11 H2          -2.5140     1.3630     1.0610 hn         1 5XA       0.336500
     12 H3          -0.2560     1.2750    -1.1390 hc         1 5XA       0.058700
     13 H4          -0.3800     1.4740     0.5950 hc         1 5XA       0.058700
     14 H5           0.6900    -0.7730     0.9250 hc         1 5XA       0.055200
     15 H6           0.7890    -0.9780    -0.8130 hc         1 5XA       0.055200
     16 H7           2.2360     1.0560    -0.9710 hc         1 5XA       0.045200
     17 H8           2.1600     1.2530     0.7710 hc         1 5XA       0.045200
     18 H9           3.2410    -0.9460     1.0960 h1         1 5XA       0.029700
     19 H10          3.2530    -1.2220    -0.6350 h1         1 5XA       0.029700
     20 H11          5.3440    -0.3490     0.2460 hn         1 5XA       0.336800
     21 H12          4.7160     0.6800    -0.8220 hn         1 5XA       0.336800
@<TRIPOS>BOND
     1     1     2 1   
     2     1    10 1   
     3     2     3 1   
     4     2    11 1   
     5     3     4 2   
     6     3     5 1   
     7     5     6 1   
     8     5    12 1   
     9     5    13 1   
    10     6     7 1   
    11     6    14 1   
    12     6    15 1   
    13     7     8 1   
    14     7    16 1   
    15     7    17 1   
    16     8     9 1   
    17     8    18 1   
    18     8    19 1   
    19     9    20 1   
    20     9    21 1   
@<TRIPOS>SUBSTRUCTURE
     1 5XA         1 TEMP              0 ****  ****    0 ROOT
