@<TRIPOS>MOLECULE
5XB
   16    16     1     0     0
SMALL
No Charge or Current Charge


@<TRIPOS>ATOM
      1 C2           1.1500    -0.1400    -0.4480 c5         1 5XB       0.269500
      2 C4          -1.2450    -0.1630    -0.4590 c5         1 5XB       0.034500
      3 C5          -1.0580    -1.2620     0.6230 c5         1 5XB       0.084600
      4 S1           0.7820    -1.3960     0.8960 ss         1 5XB      -0.701000
      5 C4A         -2.6710     0.4930    -0.2430 c          1 5XB       0.725000
      6 O42         -2.8420     1.2790     0.6830 o          1 5XB      -0.743000
      7 C2A          2.5920     0.5660    -0.2730 c          1 5XB       0.729000
      8 O21          2.7560     1.4220     0.5940 o          1 5XB      -0.734000
      9 O22          3.5100     0.2480    -1.0250 o          1 5XB      -0.734000
     10 N3          -0.0450     0.7420    -0.3160 n7         1 5XB      -0.825400
     11 H1           1.1350    -0.6500    -1.4210 h2         1 5XB       0.046700
     12 H2          -1.2380    -0.6170    -1.4600 h1         1 5XB       0.036700
     13 H3          -1.5360    -0.9830     1.5720 h1         1 5XB       0.043700
     14 H4          -1.4810    -2.2240     0.3000 h1         1 5XB       0.043700
     15 H7          -0.0290     1.1280     0.6360 hn         1 5XB       0.468000
     16 O41         -3.5620     0.2540    -1.0480 o          1 5XB      -0.743000
@<TRIPOS>BOND
     1     1     4 1   
     2     1     7 1   
     3     1    10 1   
     4     1    11 1   
     5     2     3 1   
     6     2     5 1   
     7     2    10 1   
     8     2    12 1   
     9     3     4 1   
    10     3    13 1   
    11     3    14 1   
    12     5     6 1   
    13     5    16 1   
    14     7     8 1   
    15     7     9 1   
    16    10    15 1   
@<TRIPOS>SUBSTRUCTURE
     1 5XB         1 TEMP              0 ****  ****    0 ROOT
