@<TRIPOS>MOLECULE
5XB
   16    16     1     0     0
SMALL
abcg2


@<TRIPOS>ATOM
      1 C2           1.1080    -0.0990    -0.6290 c5         1 5XB       0.269500
      2 C4          -1.2410    -0.1830    -0.4990 c5         1 5XB       0.034500
      3 C5          -0.9620    -1.3310     0.5030 c5         1 5XB       0.084600
      4 S1           0.8070    -1.6990     0.3410 ss         1 5XB      -0.701000
      5 C4A         -2.5220     0.5630    -0.0750 c          1 5XB       0.725000
      6 O42         -2.3730     1.6310     0.5490 o          1 5XB      -0.743000
      7 C2A          2.3530     0.5750    -0.0240 c          1 5XB       0.729000
      8 O21          2.1600     1.5650     0.7050 o          1 5XB      -0.734000
      9 O22          3.4380     0.0360    -0.3050 o          1 5XB      -0.734000
     10 N3          -0.0800     0.6700    -0.5440 n7         1 5XB      -0.825400
     11 H1           1.3040    -0.4170    -1.6550 h2         1 5XB       0.046700
     12 H2          -1.3910    -0.6340    -1.4850 h1         1 5XB       0.036700
     13 H3          -1.1820    -1.0180     1.5250 h1         1 5XB       0.043700
     14 H4          -1.5580    -2.2140     0.2760 h1         1 5XB       0.043700
     15 H7          -0.0480     1.2560     0.2820 hn         1 5XB       0.468000
     16 O41         -3.5940    -0.0040    -0.3540 o          1 5XB      -0.743000
@<TRIPOS>BOND
     1     1     4 1   
     2     1     7 1   
     3     1    10 1   
     4     1    11 1   
     5     2     3 1   
     6     2     5 1   
     7     2    10 1   
     8     2    12 1   
     9     3     4 1   
    10     3    13 1   
    11     3    14 1   
    12     5     6 1   
    13     5    16 1   
    14     7     8 1   
    15     7     9 1   
    16    10    15 1   
@<TRIPOS>SUBSTRUCTURE
     1 5XB         1 TEMP              0 ****  ****    0 ROOT
