@<TRIPOS>MOLECULE
5XC
   17    18     1     0     0
SMALL
No Charge or Current Charge


@<TRIPOS>ATOM
      1 O01          1.9830    -1.3640    -0.2440 os         1 5XC      -0.343100
      2 O02          2.4170     1.0000    -0.2220 os         1 5XC      -0.340100
      3 O03         -3.9290    -0.0090     0.1430 o          1 5XC      -0.517100
      4 C04          0.8460    -0.6290    -0.1540 ca         1 5XC       0.035100
      5 C05          1.0930     0.7140    -0.1410 ca         1 5XC       0.086100
      6 C06         -0.4570    -1.1390    -0.0880 ca         1 5XC      -0.057000
      7 C07          3.0370    -0.3360    -0.2350 c5         1 5XC       0.375600
      8 C08          0.0580     1.6520    -0.0620 ca         1 5XC      -0.117000
      9 C09         -1.5340    -0.2220    -0.0040 ca         1 5XC      -0.207600
     10 C10         -1.2690     1.1750     0.0080 ca         1 5XC      -0.044000
     11 C11         -2.9460    -0.7390     0.0690 c          1 5XC       0.587500
     12 H2          -0.6260    -2.2140    -0.1020 ha         1 5XC       0.136000
     13 H3           3.6500    -0.4570     0.6660 h2         1 5XC       0.067700
     14 H4           0.2720     2.7180    -0.0550 ha         1 5XC       0.140000
     15 H5          -2.0880     1.8900     0.0710 ha         1 5XC       0.139000
     16 H6          -3.0600    -1.8460     0.0530 h4         1 5XC      -0.010800
     17 H1           3.6610    -0.4420    -1.1300 h2         1 5XC       0.067700
@<TRIPOS>BOND
     1     1     4 1   
     2     1     7 1   
     3     2     5 1   
     4     2     7 1   
     5     3    11 2   
     6     4     5 ar  
     7     4     6 ar  
     8     5     8 ar  
     9     6     9 ar  
    10     6    12 1   
    11     7    13 1   
    12     7    17 1   
    13     8    10 ar  
    14     8    14 1   
    15     9    10 ar  
    16     9    11 1   
    17    10    15 1   
    18    11    16 1   
@<TRIPOS>SUBSTRUCTURE
     1 5XC         1 TEMP              0 ****  ****    0 ROOT
