@<TRIPOS>MOLECULE
5XC
   17    18     1     0     0
SMALL
bcc


@<TRIPOS>ATOM
      1 O01          1.9770    -1.3140    -0.2750 os         1 5XC      -0.319900
      2 O02          2.3830     0.9360    -0.2450 os         1 5XC      -0.316900
      3 O03         -3.8750    -0.0240     0.1630 o          1 5XC      -0.517100
      4 C04          0.8080    -0.6430    -0.1680 ca         1 5XC       0.035100
      5 C05          1.0600     0.7220    -0.1530 ca         1 5XC       0.086100
      6 C06         -0.4640    -1.1410    -0.0950 ca         1 5XC      -0.075000
      7 C07          3.0130    -0.3430    -0.2270 c5         1 5XC       0.329200
      8 C08          0.0490     1.6550    -0.0670 ca         1 5XC      -0.135000
      9 C09         -1.5110    -0.2050    -0.0050 ca         1 5XC      -0.207600
     10 C10         -1.2520     1.1630     0.0090 ca         1 5XC      -0.062000
     11 C11         -2.8840    -0.7130     0.0750 c          1 5XC       0.587500
     12 H2          -0.6620    -2.2060    -0.1080 ha         1 5XC       0.154000
     13 H3           3.5890    -0.4540     0.6960 h2         1 5XC       0.067700
     14 H4           0.2540     2.7160    -0.0590 ha         1 5XC       0.158000
     15 H5          -2.0750     1.8620     0.0790 ha         1 5XC       0.157000
     16 H6          -2.9630    -1.8150     0.0490 h4         1 5XC      -0.010800
     17 H1           3.6610    -0.4450    -1.0980 h2         1 5XC       0.067700
@<TRIPOS>BOND
     1     1     4 1   
     2     1     7 1   
     3     2     5 1   
     4     2     7 1   
     5     3    11 2   
     6     4     5 ar  
     7     4     6 ar  
     8     5     8 ar  
     9     6     9 ar  
    10     6    12 1   
    11     7    13 1   
    12     7    17 1   
    13     8    10 ar  
    14     8    14 1   
    15     9    10 ar  
    16     9    11 1   
    17    10    15 1   
    18    11    16 1   
@<TRIPOS>SUBSTRUCTURE
     1 5XC         1 TEMP              0 ****  ****    0 ROOT
