@<TRIPOS>MOLECULE
5XD
   47    49     1     0     0
SMALL
No Charge or Current Charge


@<TRIPOS>ATOM
      1 CAA          5.0620     3.6070     0.9690 c3         1 5XD      -0.086100
      2 CAN          3.6220     3.2100     1.3430 c3         1 5XD      -0.041100
      3 CAQ          3.1810     1.9280     0.6520 ca         1 5XD      -0.027300
      4 CAI          3.3880     0.6800     1.2700 ca         1 5XD      -0.136000
      5 CAK          2.9830    -0.5060     0.6340 ca         1 5XD      -0.005500
      6 CAH          2.5680     1.9770    -0.6140 ca         1 5XD      -0.136000
      7 CAJ          2.1610     0.7950    -1.2560 ca         1 5XD      -0.005500
      8 CAR          2.3680    -0.4520    -0.6330 ca         1 5XD      -0.302500
      9 SAZ          1.8230    -1.9690    -1.4270 sy         1 5XD       1.137600
     10 OAF          1.3700    -1.7080    -2.7970 o          1 5XD      -0.534000
     11 OAG          2.7440    -3.0580    -1.0980 o          1 5XD      -0.534000
     12 NAO          0.4350    -2.4130    -0.5940 nu         1 5XD      -0.848100
     13 CAS         -0.6480    -1.6130    -0.1990 ca         1 5XD       0.183000
     14 CAL         -1.1080    -0.5450    -1.0060 ca         1 5XD      -0.031000
     15 CAV         -2.2130     0.1960    -0.5720 ca         1 5XD      -0.031400
     16 NAX         -2.6780     1.4640    -1.0230 n          1 5XD      -0.284000
     17 CAC         -2.5000     1.9810    -2.3910 c3         1 5XD       0.103300
     18 CAU         -3.5670     2.0160    -0.0890 c          1 5XD       0.596000
     19 OAE         -4.2030     3.0560    -0.1930 o          1 5XD      -0.561000
     20 NAY         -3.6040     1.0960     0.9670 n          1 5XD      -0.291000
     21 CAD         -4.5760     1.1570     2.0720 c3         1 5XD       0.103300
     22 CAW         -2.7900    -0.0300     0.6700 ca         1 5XD       0.047600
     23 CAM         -2.2980    -1.0110     1.5360 ca         1 5XD      -0.197000
     24 CAT         -1.2510    -1.8490     1.0740 ca         1 5XD       0.128100
     25 OAP         -0.7370    -2.8680     1.8630 os         1 5XD      -0.352100
     26 CAB         -1.2640    -3.1730     3.1670 c3         1 5XD       0.152900
     27 H1           5.3510     4.5320     1.4820 hc         1 5XD       0.039367
     28 H2           5.7670     2.8180     1.2590 hc         1 5XD       0.039367
     29 H3           5.1500     3.7690    -0.1120 hc         1 5XD       0.039367
     30 H4           3.5540     3.0970     2.4320 hc         1 5XD       0.047700
     31 H5           2.9460     4.0340     1.0800 hc         1 5XD       0.047700
     32 H6           3.8630     0.6280     2.2460 ha         1 5XD       0.116500
     33 H7           3.1450    -1.4620     1.1300 ha         1 5XD       0.136000
     34 H8           2.4050     2.9350    -1.1030 ha         1 5XD       0.116500
     35 H9           1.6870     0.8580    -2.2350 ha         1 5XD       0.136000
     36 H10          0.7460    -3.0850     0.0970 hn         1 5XD       0.494000
     37 H11         -0.6230    -0.2960    -1.9430 ha         1 5XD       0.153000
     38 H12         -2.4110     1.1460    -3.0960 h1         1 5XD       0.054700
     39 H13         -3.3610     2.5980    -2.6790 h1         1 5XD       0.054700
     40 H14         -1.5890     2.5910    -2.4360 h1         1 5XD       0.054700
     41 H15         -5.4520     1.7470     1.7750 h1         1 5XD       0.052033
     42 H16         -4.9050     0.1440     2.3350 h1         1 5XD       0.052033
     43 H17         -4.1070     1.6220     2.9470 h1         1 5XD       0.052033
     44 H18         -2.7120    -1.1010     2.5350 ha         1 5XD       0.130000
     45 H19         -0.7250    -4.0220     3.6050 h1         1 5XD       0.044700
     46 H20         -1.1540    -2.3160     3.8440 h1         1 5XD       0.044700
     47 H21         -2.3270    -3.4400     3.1050 h1         1 5XD       0.044700
@<TRIPOS>BOND
     1     1     2 1   
     2     1    27 1   
     3     1    28 1   
     4     1    29 1   
     5     2     3 1   
     6     2    30 1   
     7     2    31 1   
     8     3     4 ar  
     9     3     6 ar  
    10     4     5 ar  
    11     4    32 1   
    12     5     8 ar  
    13     5    33 1   
    14     6     7 ar  
    15     6    34 1   
    16     7     8 ar  
    17     7    35 1   
    18     8     9 1   
    19     9    10 2   
    20     9    11 2   
    21     9    12 1   
    22    12    13 1   
    23    12    36 1   
    24    13    14 ar  
    25    13    24 ar  
    26    14    15 ar  
    27    14    37 1   
    28    15    16 1   
    29    15    22 ar  
    30    16    17 1   
    31    16    18 1   
    32    17    38 1   
    33    17    39 1   
    34    17    40 1   
    35    18    19 2   
    36    18    20 1   
    37    20    21 1   
    38    20    22 1   
    39    21    41 1   
    40    21    42 1   
    41    21    43 1   
    42    22    23 ar  
    43    23    24 ar  
    44    23    44 1   
    45    24    25 1   
    46    25    26 1   
    47    26    45 1   
    48    26    46 1   
    49    26    47 1   
@<TRIPOS>SUBSTRUCTURE
     1 5XD         1 TEMP              0 ****  ****    0 ROOT
