@<TRIPOS>MOLECULE
5XD
   47    49     1     0     0
SMALL
abcg2


@<TRIPOS>ATOM
      1 CAA          5.1670     2.6720     2.3260 c3         1 5XD      -0.086100
      2 CAN          3.8380     2.0230     2.7130 c3         1 5XD      -0.041100
      3 CAQ          3.2880     1.1840     1.5970 ca         1 5XD      -0.027300
      4 CAI          3.7030    -0.1380     1.4320 ca         1 5XD      -0.136000
      5 CAK          3.2330    -0.9080     0.3840 ca         1 5XD      -0.005500
      6 CAH          2.3930     1.7220     0.6750 ca         1 5XD      -0.136000
      7 CAJ          1.9150     0.9670    -0.3840 ca         1 5XD      -0.005500
      8 CAR          2.3420    -0.3460    -0.5210 ca         1 5XD      -0.302500
      9 SAZ          1.6580    -1.3520    -1.7990 sy         1 5XD       1.137600
     10 OAF          1.1880    -0.4740    -2.8570 o          1 5XD      -0.534000
     11 OAG          2.5820    -2.4320    -2.1040 o          1 5XD      -0.534000
     12 NAO          0.3100    -2.0910    -1.1550 nu         1 5XD      -0.848100
     13 CAS         -0.7290    -1.2560    -0.6690 ca         1 5XD       0.183000
     14 CAL         -1.6830    -0.7840    -1.5670 ca         1 5XD      -0.031000
     15 CAV         -2.6710     0.0440    -1.0820 ca         1 5XD      -0.031400
     16 NAX         -3.7370     0.6690    -1.6960 n          1 5XD      -0.284000
     17 CAC         -4.0610     0.5710    -3.0950 c3         1 5XD       0.103300
     18 CAU         -4.4530     1.3830    -0.7680 c          1 5XD       0.596000
     19 OAE         -5.4560     2.0480    -0.9650 o          1 5XD      -0.561000
     20 NAY         -3.8120     1.1990     0.4400 n          1 5XD      -0.291000
     21 CAD         -4.2320     1.7780     1.6890 c3         1 5XD       0.103300
     22 CAW         -2.7200     0.3850     0.2700 ca         1 5XD       0.047600
     23 CAM         -1.7910    -0.0840     1.1800 ca         1 5XD      -0.197000
     24 CAT         -0.7780    -0.9110     0.6940 ca         1 5XD       0.128100
     25 OAP          0.1860    -1.4420     1.4640 os         1 5XD      -0.352100
     26 CAB          0.3060    -1.0080     2.8040 c3         1 5XD       0.152900
     27 H1           5.5600     3.2690     3.1490 hc         1 5XD       0.039367
     28 H2           5.9140     1.9180     2.0730 hc         1 5XD       0.039367
     29 H3           5.0470     3.3270     1.4620 hc         1 5XD       0.039367
     30 H4           3.9810     1.4040     3.6020 hc         1 5XD       0.047700
     31 H5           3.1180     2.7980     2.9810 hc         1 5XD       0.047700
     32 H6           4.4000    -0.5730     2.1380 ha         1 5XD       0.116500
     33 H7           3.5610    -1.9340     0.2790 ha         1 5XD       0.136000
     34 H8           2.0610     2.7470     0.7870 ha         1 5XD       0.116500
     35 H9           1.2230     1.4060    -1.0890 ha         1 5XD       0.136000
     36 H10          0.5710    -2.8570    -0.5420 hn         1 5XD       0.494000
     37 H11         -1.6350    -1.0770    -2.6070 ha         1 5XD       0.153000
     38 H12         -4.3070    -0.4560    -3.3650 h1         1 5XD       0.054700
     39 H13         -4.9180     1.2030    -3.3080 h1         1 5XD       0.054700
     40 H14         -3.2230     0.9050    -3.7060 h1         1 5XD       0.054700
     41 H15         -5.1550     2.3290     1.5320 h1         1 5XD       0.052033
     42 H16         -4.4130     0.9990     2.4300 h1         1 5XD       0.052033
     43 H17         -3.4770     2.4620     2.0750 h1         1 5XD       0.052033
     44 H18         -1.8510     0.1910     2.2240 ha         1 5XD       0.130000
     45 H19          1.1990    -1.4830     3.2000 h1         1 5XD       0.044700
     46 H20          0.4260     0.0760     2.8680 h1         1 5XD       0.044700
     47 H21         -0.5530    -1.3090     3.4090 h1         1 5XD       0.044700
@<TRIPOS>BOND
     1     1     2 1   
     2     1    27 1   
     3     1    28 1   
     4     1    29 1   
     5     2     3 1   
     6     2    30 1   
     7     2    31 1   
     8     3     4 ar  
     9     3     6 ar  
    10     4     5 ar  
    11     4    32 1   
    12     5     8 ar  
    13     5    33 1   
    14     6     7 ar  
    15     6    34 1   
    16     7     8 ar  
    17     7    35 1   
    18     8     9 1   
    19     9    10 2   
    20     9    11 2   
    21     9    12 1   
    22    12    13 1   
    23    12    36 1   
    24    13    14 ar  
    25    13    24 ar  
    26    14    15 ar  
    27    14    37 1   
    28    15    16 1   
    29    15    22 ar  
    30    16    17 1   
    31    16    18 1   
    32    17    38 1   
    33    17    39 1   
    34    17    40 1   
    35    18    19 2   
    36    18    20 1   
    37    20    21 1   
    38    20    22 1   
    39    21    41 1   
    40    21    42 1   
    41    21    43 1   
    42    22    23 ar  
    43    23    24 ar  
    44    23    44 1   
    45    24    25 1   
    46    25    26 1   
    47    26    45 1   
    48    26    46 1   
    49    26    47 1   
@<TRIPOS>SUBSTRUCTURE
     1 5XD         1 TEMP              0 ****  ****    0 ROOT
