@<TRIPOS>MOLECULE
5XE
   44    46     1     0     0
SMALL
abcg2


@<TRIPOS>ATOM
      1 CAZ         -1.9960    -3.2250    -1.2640 c3         1 5XE      -0.070800
      2 CAT         -2.0250    -1.7830    -0.8530 ca         1 5XE       0.034700
      3 CAU         -2.6710    -0.8740    -1.6860 ca         1 5XE      -0.123000
      4 CAV         -2.7090     0.4770    -1.3780 ca         1 5XE       0.029100
      5 BR          -3.5820     1.6610    -2.5530 br         1 5XE      -0.087100
      6 CAW         -2.1130     0.9720    -0.2310 ca         1 5XE      -0.113000
      7 CAX         -1.4750     0.0790     0.6140 ca         1 5XE      -0.012000
      8 CAR         -1.4370    -1.2760     0.3130 ca         1 5XE      -0.280500
      9 SAA         -0.5230    -2.3130     1.4340 sy         1 5XE       1.136600
     10 OAC         -0.2870    -1.5380     2.6390 o          1 5XE      -0.533000
     11 OAD         -1.1460    -3.6200     1.5460 o          1 5XE      -0.533000
     12 NAB          0.9630    -2.5660     0.7270 nu         1 5XE      -0.853100
     13 CAE          1.7090    -1.4140     0.3660 ca         1 5XE       0.182000
     14 CAF          2.4550    -0.7620     1.3460 ca         1 5XE      -0.036000
     15 CAG          3.1290     0.3830     0.9860 ca         1 5XE      -0.029400
     16 NAL          3.9220     1.2530     1.7050 n          1 5XE      -0.285000
     17 CAP          4.2440     1.1260     3.1030 c3         1 5XE       0.103300
     18 CAM          4.3830     2.2500     0.8820 c          1 5XE       0.596000
     19 OAO          5.1130     3.1760     1.1870 o          1 5XE      -0.558000
     20 NAN          3.8530     1.9960    -0.3660 n          1 5XE      -0.291000
     21 CAQ          4.0870     2.8030    -1.5360 c3         1 5XE       0.102300
     22 CAH          3.0840     0.8600    -0.3250 ca         1 5XE       0.048600
     23 CAI          2.3680     0.2160    -1.3170 ca         1 5XE      -0.194000
     24 CAJ          1.6640    -0.9320    -0.9540 ca         1 5XE       0.130100
     25 OAK          0.9280    -1.6570    -1.8140 os         1 5XE      -0.357100
     26 CAS          0.6430    -1.1200    -3.0900 c3         1 5XE       0.150900
     27 H1          -2.5730    -3.8500    -0.5840 hc         1 5XE       0.060700
     28 H2          -2.4160    -3.3370    -2.2610 hc         1 5XE       0.060700
     29 H3          -0.9820    -3.6200    -1.2950 hc         1 5XE       0.060700
     30 H4          -3.1360    -1.2410    -2.5910 ha         1 5XE       0.128000
     31 H5          -2.1320     2.0240     0.0130 ha         1 5XE       0.136000
     32 H6          -1.0060     0.4580     1.5110 ha         1 5XE       0.148000
     33 H7           0.9410    -3.3150     0.0430 hn         1 5XE       0.498000
     34 H8           2.4900    -1.1580     2.3510 ha         1 5XE       0.154000
     35 H9           4.9260     0.2930     3.2780 h1         1 5XE       0.055033
     36 H10          4.7170     2.0420     3.4450 h1         1 5XE       0.055033
     37 H11          3.3370     0.9680     3.6850 h1         1 5XE       0.055033
     38 H12          4.7070     3.6510    -1.2620 h1         1 5XE       0.052700
     39 H13          4.6000     2.2280    -2.3060 h1         1 5XE       0.052700
     40 H14          3.1450     3.1740    -1.9400 h1         1 5XE       0.052700
     41 H15          2.3560     0.5960    -2.3290 ha         1 5XE       0.132000
     42 H16         -0.0480    -1.8090    -3.5680 h1         1 5XE       0.045700
     43 H17          0.1690    -0.1380    -3.0170 h1         1 5XE       0.045700
     44 H18          1.5410    -1.0380    -3.7080 h1         1 5XE       0.045700
@<TRIPOS>BOND
     1     1     2 1   
     2     1    27 1   
     3     1    28 1   
     4     1    29 1   
     5     2     3 ar  
     6     2     8 ar  
     7     3     4 ar  
     8     3    30 1   
     9     4     5 1   
    10     4     6 ar  
    11     6     7 ar  
    12     6    31 1   
    13     7     8 ar  
    14     7    32 1   
    15     8     9 1   
    16     9    10 2   
    17     9    11 2   
    18     9    12 1   
    19    12    13 1   
    20    12    33 1   
    21    13    14 ar  
    22    13    24 ar  
    23    14    15 ar  
    24    14    34 1   
    25    15    16 1   
    26    15    22 ar  
    27    16    17 1   
    28    16    18 1   
    29    17    35 1   
    30    17    36 1   
    31    17    37 1   
    32    18    19 2   
    33    18    20 1   
    34    20    21 1   
    35    20    22 1   
    36    21    38 1   
    37    21    39 1   
    38    21    40 1   
    39    22    23 ar  
    40    23    24 ar  
    41    23    41 1   
    42    24    25 1   
    43    25    26 1   
    44    26    42 1   
    45    26    43 1   
    46    26    44 1   
@<TRIPOS>SUBSTRUCTURE
     1 5XE         1 TEMP              0 ****  ****    0 ROOT
