@<TRIPOS>MOLECULE
5XE
   44    46     1     0     0
SMALL
No Charge or Current Charge


@<TRIPOS>ATOM
      1 CAZ         -1.9940    -2.0380    -1.5330 c3         1 5XE      -0.070800
      2 CAT         -2.0610    -1.0900    -0.3380 ca         1 5XE       0.034700
      3 CAU         -2.7700     0.1190    -0.4940 ca         1 5XE      -0.123000
      4 CAV         -2.8620     1.0420     0.5570 ca         1 5XE       0.029100
      5 Br          -3.8250     2.6760     0.3130 br         1 5XE      -0.087100
      6 CAW         -2.2480     0.7700     1.7860 ca         1 5XE      -0.113000
      7 CAX         -1.5400    -0.4280     1.9630 ca         1 5XE      -0.012000
      8 CAR         -1.4380    -1.3680     0.9110 ca         1 5XE      -0.280500
      9 SAA         -0.4750    -2.8710     1.2140 sy         1 5XE       1.136600
     10 OAC          0.0870    -2.8630     2.5670 o          1 5XE      -0.533000
     11 OAD         -1.1720    -4.0390     0.6720 o          1 5XE      -0.533000
     12 NAB          0.8620    -2.7560     0.2050 nu         1 5XE      -0.853100
     13 CAE          1.6660    -1.6410    -0.0730 ca         1 5XE       0.182000
     14 CAF          1.8920    -0.6370     0.8980 ca         1 5XE      -0.036000
     15 CAG          2.7230     0.4390     0.5680 ca         1 5XE      -0.029400
     16 NAL          2.8700     1.6950     1.2240 n          1 5XE      -0.285000
     17 CAP          2.6750     1.9080     2.6680 c3         1 5XE       0.103300
     18 CAM          3.5140     2.6110     0.3800 c          1 5XE       0.596000
     19 OAO          3.8690     3.7500     0.6500 o          1 5XE      -0.558000
     20 NAN          3.7080     1.9230    -0.8260 n          1 5XE      -0.291000
     21 CAQ          4.5430     2.4240    -1.9300 c3         1 5XE       0.102300
     22 CAH          3.2400     0.5860    -0.7110 ca         1 5XE       0.048600
     23 CAI          2.9560    -0.3360    -1.7240 ca         1 5XE      -0.194000
     24 CAJ          2.2050    -1.4910    -1.3870 ca         1 5XE       0.130100
     25 OAK          1.9130    -2.4660    -2.3300 os         1 5XE      -0.357100
     26 CAS          2.3870    -2.3920    -3.6870 c3         1 5XE       0.150900
     27 H1          -2.5080    -2.9820    -1.3240 hc         1 5XE       0.060700
     28 H2          -2.4760    -1.6060    -2.4180 hc         1 5XE       0.060700
     29 H3          -0.9600    -2.2590    -1.8190 hc         1 5XE       0.060700
     30 H4          -3.2520     0.3500    -1.4410 ha         1 5XE       0.128000
     31 H5          -2.3190     1.4860     2.6010 ha         1 5XE       0.136000
     32 H6          -1.0700    -0.6170     2.9280 ha         1 5XE       0.148000
     33 H7           0.6710    -3.3660    -0.5780 hn         1 5XE       0.498000
     34 H8           1.4350    -0.6890     1.8800 ha         1 5XE       0.154000
     35 H9           3.4290     1.3420     3.2290 h1         1 5XE       0.055033
     36 H10          2.7690     2.9740     2.9130 h1         1 5XE       0.055033
     37 H11          1.6740     1.5650     2.9600 h1         1 5XE       0.055033
     38 H12          5.2550     3.1720    -1.5590 h1         1 5XE       0.052700
     39 H13          5.1040     1.5950    -2.3800 h1         1 5XE       0.052700
     40 H14          3.9030     2.8830    -2.6940 h1         1 5XE       0.052700
     41 H15          3.3000    -0.1450    -2.7350 ha         1 5XE       0.132000
     42 H16          2.0540    -3.2710    -4.2540 h1         1 5XE       0.045700
     43 H17          1.9970    -1.4980    -4.1890 h1         1 5XE       0.045700
     44 H18          3.4840    -2.3640    -3.7160 h1         1 5XE       0.045700
@<TRIPOS>BOND
     1     1     2 1   
     2     1    27 1   
     3     1    28 1   
     4     1    29 1   
     5     2     3 ar  
     6     2     8 ar  
     7     3     4 ar  
     8     3    30 1   
     9     4     5 1   
    10     4     6 ar  
    11     6     7 ar  
    12     6    31 1   
    13     7     8 ar  
    14     7    32 1   
    15     8     9 1   
    16     9    10 2   
    17     9    11 2   
    18     9    12 1   
    19    12    13 1   
    20    12    33 1   
    21    13    14 ar  
    22    13    24 ar  
    23    14    15 ar  
    24    14    34 1   
    25    15    16 1   
    26    15    22 ar  
    27    16    17 1   
    28    16    18 1   
    29    17    35 1   
    30    17    36 1   
    31    17    37 1   
    32    18    19 2   
    33    18    20 1   
    34    20    21 1   
    35    20    22 1   
    36    21    38 1   
    37    21    39 1   
    38    21    40 1   
    39    22    23 ar  
    40    23    24 ar  
    41    23    41 1   
    42    24    25 1   
    43    25    26 1   
    44    26    42 1   
    45    26    43 1   
    46    26    44 1   
@<TRIPOS>SUBSTRUCTURE
     1 5XE         1 TEMP              0 ****  ****    0 ROOT
