@<TRIPOS>MOLECULE
5XF
   52    55     1     0     0
SMALL
No Charge or Current Charge


@<TRIPOS>ATOM
      1 CAO          0.3590    -2.8590    -1.2960 c5         1 5XF       0.174300
      2 CAP         -0.1640    -4.2120    -0.7530 c5         1 5XF      -0.082900
      3 CAQ          1.0010    -4.6260     0.1810 c5         1 5XF      -0.082900
      4 CAR          1.2530    -3.3100     0.9620 c5         1 5XF       0.174300
      5 NAN          0.9860    -2.2840    -0.0790 nh         1 5XF      -0.787400
      6 CAA          1.5220    -0.9750    -0.0320 ca         1 5XF       0.180000
      7 CAB          2.9210    -0.8020     0.0270 ca         1 5XF      -0.110000
      8 CAC          3.4360     0.4990     0.0180 ca         1 5XF      -0.020400
      9 NAH          4.7430     0.9500     0.3560 n          1 5XF      -0.291000
     10 CAL          5.9720     0.1580     0.1810 c3         1 5XF       0.107300
     11 CAI          4.7360     2.3320     0.5880 c          1 5XF       0.595000
     12 OAK          5.6970     3.0510     0.8260 o          1 5XF      -0.569000
     13 NAJ          3.3970     2.7200     0.4410 n          1 5XF      -0.290000
     14 CAM          2.9550     4.1240     0.3770 c3         1 5XF       0.104300
     15 CAD          2.5970     1.6030     0.0740 ca         1 5XF       0.025600
     16 CAE          1.2050     1.4600     0.1330 ca         1 5XF      -0.132000
     17 CAF          0.6560     0.1570     0.0200 ca         1 5XF      -0.003000
     18 NAG         -0.7410    -0.1000     0.0450 ns         1 5XF      -0.141000
     19 CAS         -1.8610     0.7160     0.0130 c          1 5XF       0.634700
     20 OAU         -1.7820     1.9380    -0.0510 o          1 5XF      -0.574100
     21 CAT         -3.1860    -0.0270     0.1040 ca         1 5XF      -0.191600
     22 CAV         -3.2190    -1.3580     0.6000 ca         1 5XF      -0.050000
     23 CAW         -4.4290    -2.0610     0.6970 ca         1 5XF      -0.158000
     24 CAX         -5.6280    -1.4590     0.3040 ca         1 5XF      -0.052000
     25 CAY         -5.6190    -0.1480    -0.1910 ca         1 5XF      -0.209000
     26 CAZ         -4.4080     0.5770    -0.2960 ca         1 5XF       0.189100
     27 OBA         -4.3990     1.8590    -0.8150 os         1 5XF      -0.323100
     28 CBB         -5.5910     2.5390    -1.2460 c3         1 5XF       0.147900
     29 H1           1.1050    -3.0080    -2.0890 h1         1 5XF       0.041450
     30 H2          -0.4560    -2.2380    -1.6930 h1         1 5XF       0.041450
     31 H3          -1.1000    -4.0840    -0.1960 hc         1 5XF       0.048450
     32 H4          -0.3500    -4.9380    -1.5520 hc         1 5XF       0.048450
     33 H5           0.7420    -5.4600     0.8420 hc         1 5XF       0.048450
     34 H6           1.8860    -4.9220    -0.3940 hc         1 5XF       0.048450
     35 H7           0.5540    -3.2020     1.8020 h1         1 5XF       0.041450
     36 H8           2.2790    -3.2640     1.3540 h1         1 5XF       0.041450
     37 H9           3.5820    -1.6610     0.0760 ha         1 5XF       0.123000
     38 H10          5.7930    -0.6600    -0.5270 h1         1 5XF       0.049033
     39 H11          6.7780     0.7930    -0.2080 h1         1 5XF       0.049033
     40 H12          6.2780    -0.2620     1.1480 h1         1 5XF       0.049033
     41 H13          3.7880     4.7700     0.0750 h1         1 5XF       0.053033
     42 H14          2.1440     4.2260    -0.3560 h1         1 5XF       0.053033
     43 H15          2.5920     4.4390     1.3630 h1         1 5XF       0.053033
     44 H16          0.5850     2.3370     0.2840 ha         1 5XF       0.160000
     45 H17         -0.9480    -1.0890     0.0790 hn         1 5XF       0.183000
     46 H18         -2.3160    -1.8620     0.9370 ha         1 5XF       0.117000
     47 H19         -4.4350    -3.0780     1.0840 ha         1 5XF       0.119000
     48 H20         -6.5650    -2.0080     0.3800 ha         1 5XF       0.114000
     49 H21         -6.5670     0.2870    -0.4920 ha         1 5XF       0.121000
     50 H22         -6.0810     1.9900    -2.0600 h1         1 5XF       0.043367
     51 H23         -6.3000     2.6490    -0.4150 h1         1 5XF       0.043367
     52 H24         -5.3430     3.5420    -1.6150 h1         1 5XF       0.043367
@<TRIPOS>BOND
     1     1     2 1   
     2     1     5 1   
     3     1    29 1   
     4     1    30 1   
     5     2     3 1   
     6     2    31 1   
     7     2    32 1   
     8     3     4 1   
     9     3    33 1   
    10     3    34 1   
    11     4     5 1   
    12     4    35 1   
    13     4    36 1   
    14     5     6 1   
    15     6     7 ar  
    16     6    17 ar  
    17     7     8 ar  
    18     7    37 1   
    19     8     9 1   
    20     8    15 ar  
    21     9    10 1   
    22     9    11 1   
    23    10    38 1   
    24    10    39 1   
    25    10    40 1   
    26    11    12 2   
    27    11    13 1   
    28    13    14 1   
    29    13    15 1   
    30    14    41 1   
    31    14    42 1   
    32    14    43 1   
    33    15    16 ar  
    34    16    17 ar  
    35    16    44 1   
    36    17    18 1   
    37    18    19 1   
    38    18    45 1   
    39    19    20 2   
    40    19    21 1   
    41    21    22 ar  
    42    21    26 ar  
    43    22    23 ar  
    44    22    46 1   
    45    23    24 ar  
    46    23    47 1   
    47    24    25 ar  
    48    24    48 1   
    49    25    26 ar  
    50    25    49 1   
    51    26    27 1   
    52    27    28 1   
    53    28    50 1   
    54    28    51 1   
    55    28    52 1   
@<TRIPOS>SUBSTRUCTURE
     1 5XF         1 TEMP              0 ****  ****    0 ROOT
