@<TRIPOS>MOLECULE
5XF
   52    55     1     0     0
SMALL
abcg2


@<TRIPOS>ATOM
      1 CAO          1.2870    -3.0470    -1.4030 c5         1 5XF       0.174300
      2 CAP          0.4310    -4.2990    -1.2070 c5         1 5XF      -0.082900
      3 CAQ          0.0350    -4.2730     0.2860 c5         1 5XF      -0.082900
      4 CAR          0.6430    -2.9770     0.8240 c5         1 5XF       0.174300
      5 NAN          0.7850    -2.1510    -0.3740 nh         1 5XF      -0.787400
      6 CAA          1.4100    -0.8970    -0.1900 ca         1 5XF       0.180000
      7 CAB          2.7880    -0.7190    -0.3020 ca         1 5XF      -0.110000
      8 CAC          3.2980     0.5440    -0.0850 ca         1 5XF      -0.020400
      9 NAH          4.5860     1.0340    -0.1230 n          1 5XF      -0.291000
     10 CAL          5.7620     0.2590    -0.4220 c3         1 5XF       0.107300
     11 CAI          4.5840     2.3740     0.1830 c          1 5XF       0.595000
     12 OAK          5.5510     3.1130     0.2460 o          1 5XF      -0.569000
     13 NAJ          3.2690     2.7160     0.4030 n          1 5XF      -0.290000
     14 CAM          2.8150     4.0330     0.7690 c3         1 5XF       0.104300
     15 CAD          2.4650     1.6090     0.2500 ca         1 5XF       0.025600
     16 CAE          1.0970     1.4640     0.3650 ca         1 5XF      -0.132000
     17 CAF          0.5710     0.1910     0.1310 ca         1 5XF      -0.003000
     18 NAG         -0.7930    -0.1070     0.1620 ns         1 5XF      -0.141000
     19 CAS         -1.8310     0.6250     0.6210 c          1 5XF       0.634700
     20 OAU         -1.7410     1.7570     1.0640 o          1 5XF      -0.574100
     21 CAT         -3.1330    -0.1100     0.5620 ca         1 5XF      -0.191600
     22 CAV         -3.2660    -1.3410     1.1920 ca         1 5XF      -0.050000
     23 CAW         -4.4800    -2.0130     1.2040 ca         1 5XF      -0.158000
     24 CAX         -5.5690    -1.4440     0.5650 ca         1 5XF      -0.052000
     25 CAY         -5.4570    -0.2200    -0.0830 ca         1 5XF      -0.209000
     26 CAZ         -4.2400     0.4580    -0.0880 ca         1 5XF       0.189100
     27 OBA         -4.0340     1.6270    -0.7100 os         1 5XF      -0.323100
     28 CBB         -5.1040     2.2220    -1.4190 c3         1 5XF       0.147900
     29 H1           2.3480    -3.2960    -1.2600 h1         1 5XF       0.041450
     30 H2           1.1810    -2.6000    -2.3920 h1         1 5XF       0.041450
     31 H3          -0.4560    -4.2560    -1.8390 hc         1 5XF       0.048450
     32 H4           0.9790    -5.2000    -1.4800 hc         1 5XF       0.048450
     33 H5          -1.0490    -4.2670     0.3960 hc         1 5XF       0.048450
     34 H6           0.4110    -5.1380     0.8320 hc         1 5XF       0.048450
     35 H7           0.0180    -2.4810     1.5700 h1         1 5XF       0.041450
     36 H8           1.6210    -3.1680     1.2890 h1         1 5XF       0.041450
     37 H9           3.4340    -1.5530    -0.5430 ha         1 5XF       0.123000
     38 H10          5.6830    -0.1950    -1.4100 h1         1 5XF       0.049033
     39 H11          6.6300     0.9100    -0.4080 h1         1 5XF       0.049033
     40 H12          5.9040    -0.5300     0.3160 h1         1 5XF       0.049033
     41 H13          3.6420     4.7310     0.6880 h1         1 5XF       0.053033
     42 H14          2.0190     4.3600     0.1000 h1         1 5XF       0.053033
     43 H15          2.4420     4.0480     1.7930 h1         1 5XF       0.053033
     44 H16          0.4620     2.3010     0.6070 ha         1 5XF       0.160000
     45 H17         -0.9880    -1.0260    -0.2210 hn         1 5XF       0.183000
     46 H18         -2.4140    -1.7740     1.7020 ha         1 5XF       0.117000
     47 H19         -4.5710    -2.9650     1.7100 ha         1 5XF       0.119000
     48 H20         -6.5250    -1.9520     0.5640 ha         1 5XF       0.114000
     49 H21         -6.3240     0.1900    -0.5820 ha         1 5XF       0.121000
     50 H22         -5.4660     1.5800    -2.2260 h1         1 5XF       0.043367
     51 H23         -5.9410     2.4710    -0.7620 h1         1 5XF       0.043367
     52 H24         -4.7130     3.1400    -1.8490 h1         1 5XF       0.043367
@<TRIPOS>BOND
     1     1     2 1   
     2     1     5 1   
     3     1    29 1   
     4     1    30 1   
     5     2     3 1   
     6     2    31 1   
     7     2    32 1   
     8     3     4 1   
     9     3    33 1   
    10     3    34 1   
    11     4     5 1   
    12     4    35 1   
    13     4    36 1   
    14     5     6 1   
    15     6     7 ar  
    16     6    17 ar  
    17     7     8 ar  
    18     7    37 1   
    19     8     9 1   
    20     8    15 ar  
    21     9    10 1   
    22     9    11 1   
    23    10    38 1   
    24    10    39 1   
    25    10    40 1   
    26    11    12 2   
    27    11    13 1   
    28    13    14 1   
    29    13    15 1   
    30    14    41 1   
    31    14    42 1   
    32    14    43 1   
    33    15    16 ar  
    34    16    17 ar  
    35    16    44 1   
    36    17    18 1   
    37    18    19 1   
    38    18    45 1   
    39    19    20 2   
    40    19    21 1   
    41    21    22 ar  
    42    21    26 ar  
    43    22    23 ar  
    44    22    46 1   
    45    23    24 ar  
    46    23    47 1   
    47    24    25 ar  
    48    24    48 1   
    49    25    26 ar  
    50    25    49 1   
    51    26    27 1   
    52    27    28 1   
    53    28    50 1   
    54    28    51 1   
    55    28    52 1   
@<TRIPOS>SUBSTRUCTURE
     1 5XF         1 TEMP              0 ****  ****    0 ROOT
