@<TRIPOS>MOLECULE
5XG
   49    53     1     0     0
SMALL
No Charge or Current Charge


@<TRIPOS>ATOM
      1 C2          -4.2560    -2.2330     0.1400 cc         1 5XG       0.141900
      2 C5          -3.5430    -0.2390     0.7630 ca         1 5XG      -0.034000
      3 C6          -2.7640     0.9280     0.7420 ca         1 5XG      -0.097000
      4 C7          -1.7430     1.0800    -0.2370 cp         1 5XG      -0.006000
      5 C8          -1.5510     0.0400    -1.1900 ca         1 5XG      -0.133000
      6 C11         -0.9100     2.3210    -0.2730 cp         1 5XG      -0.113000
      7 C12         -1.5480     3.5780    -0.3350 ca         1 5XG       0.359900
      8 N13         -0.8960     4.7590    -0.3830 nb         1 5XG      -0.671000
      9 C15          1.2010     3.5380    -0.2890 ca         1 5XG       0.006000
     10 C17          0.5120     2.2990    -0.2530 ca         1 5XG       0.373000
     11 C19          2.2610     0.6530    -1.1050 c6         1 5XG       0.235800
     12 C21          2.3500    -1.6920     0.0160 c5         1 5XG      -0.133000
     13 C23          4.5590    -2.7130     0.0310 c5         1 5XG       0.099000
     14 O26          1.2770    -3.8930    -0.5000 o          1 5XG      -0.558000
     15 C27          1.1920    -1.1900     0.9340 c6         1 5XG      -0.072900
     16 N1          -4.4380    -3.4260    -0.5000 nv         1 5XG      -0.915000
     17 N3          -4.9940    -1.8080     1.2290 na         1 5XG      -0.041500
     18 N4          -4.5760    -0.5400     1.6640 nc         1 5XG      -0.295400
     19 C9          -2.3350    -1.1300    -1.1630 ca         1 5XG      -0.031000
     20 C10         -3.3160    -1.2250    -0.1690 ca         1 5XG      -0.203000
     21 C14          0.4540     4.7240    -0.3600 ca         1 5XG       0.361900
     22 Cl1          2.9680     3.6670    -0.1910 cl         1 5XG      -0.199000
     23 N18          1.2170     1.0710    -0.1310 nh         1 5XG      -0.856400
     24 C20          2.2400    -0.8820    -1.3180 c6         1 5XG      -0.072900
     25 C22          3.7530    -1.5730     0.7040 c5         1 5XG      -0.090400
     26 N24          3.5140    -3.7210    -0.0940 ns         1 5XG      -0.513900
     27 C25          2.2600    -3.2060    -0.2750 c          1 5XG       0.566000
     28 C28          1.2340     0.3410     1.1620 c6         1 5XG       0.235800
     29 H1          -2.9370     1.7080     1.4800 ha         1 5XG       0.126000
     30 H2          -0.7850     0.1480    -1.9530 ha         1 5XG       0.117000
     31 H3          -2.6360     3.6370    -0.3570 h4         1 5XG       0.030100
     32 H4           2.0950     1.1470    -2.0740 h1         1 5XG       0.042450
     33 H5           3.2560     0.9570    -0.7510 h1         1 5XG       0.042450
     34 H6           4.9460    -2.4120    -0.9520 h1         1 5XG       0.043700
     35 H7           5.4020    -3.0450     0.6520 h1         1 5XG       0.043700
     36 H8           0.2240    -1.4550     0.4890 hc         1 5XG       0.061450
     37 H9           1.2270    -1.7040     1.9040 hc         1 5XG       0.061450
     38 H10         -5.1010    -4.1190    -0.1540 hn         1 5XG       0.461500
     39 H11         -3.8160    -3.7050    -1.2560 hn         1 5XG       0.461500
     40 H12         -5.7470    -2.3080     1.6870 hn         1 5XG       0.365000
     41 H13         -2.1810    -1.9250    -1.8890 ha         1 5XG       0.115000
     42 H14          0.9570     5.6890    -0.3840 h4         1 5XG       0.031100
     43 H15          1.3100    -1.1550    -1.8340 hc         1 5XG       0.061450
     44 H16          3.0530    -1.1620    -2.0020 hc         1 5XG       0.061450
     45 H17          4.2320    -0.5950     0.5860 hc         1 5XG       0.058700
     46 H18          3.6800    -1.7590     1.7820 hc         1 5XG       0.058700
     47 H19          3.6580    -4.7160    -0.2210 hn         1 5XG       0.326500
     48 H20          0.3690     0.6310     1.7760 h1         1 5XG       0.042450
     49 H21          2.1390     0.6060     1.7300 h1         1 5XG       0.042450
@<TRIPOS>BOND
     1     1    16 1   
     2     1    17 1   
     3     1    20 2   
     4     2     3 ar  
     5     2    18 2   
     6     2    20 ar  
     7     3     4 ar  
     8     3    29 1   
     9     4     5 ar  
    10     4     6 1   
    11     5    19 ar  
    12     5    30 1   
    13     6     7 ar  
    14     6    10 ar  
    15     7     8 ar  
    16     7    31 1   
    17     8    21 ar  
    18     9    10 ar  
    19     9    21 ar  
    20     9    22 1   
    21    10    23 1   
    22    11    23 1   
    23    11    24 1   
    24    11    32 1   
    25    11    33 1   
    26    12    15 1   
    27    12    24 1   
    28    12    25 1   
    29    12    27 1   
    30    13    25 1   
    31    13    26 1   
    32    13    34 1   
    33    13    35 1   
    34    14    27 2   
    35    15    28 1   
    36    15    36 1   
    37    15    37 1   
    38    16    38 1   
    39    16    39 1   
    40    17    18 1   
    41    17    40 1   
    42    19    20 ar  
    43    19    41 1   
    44    21    42 1   
    45    23    28 1   
    46    24    43 1   
    47    24    44 1   
    48    25    45 1   
    49    25    46 1   
    50    26    27 1   
    51    26    47 1   
    52    28    48 1   
    53    28    49 1   
@<TRIPOS>SUBSTRUCTURE
     1 5XG         1 TEMP              0 ****  ****    0 ROOT
