@<TRIPOS>MOLECULE
5XG
   49    53     1     0     0
SMALL
bcc


@<TRIPOS>ATOM
      1 C2          -4.0640    -2.2980     0.1550 cc         1 5XG       0.141900
      2 C5          -3.3150    -0.3260     0.8720 ca         1 5XG      -0.034000
      3 C6          -2.5390     0.8590     0.8560 ca         1 5XG      -0.115000
      4 C7          -1.6580     1.0520    -0.1750 cp         1 5XG      -0.006000
      5 C8          -1.5210     0.0910    -1.2240 ca         1 5XG      -0.151000
      6 C11         -0.8680     2.3010    -0.2510 cp         1 5XG      -0.178300
      7 C12         -1.5290     3.5160    -0.3600 ca         1 5XG       0.425200
      8 N13         -0.9250     4.6860    -0.5280 nb         1 5XG      -0.671000
      9 C15          1.1560     3.5330    -0.4440 ca         1 5XG      -0.150900
     10 C17          0.5430     2.2850    -0.2770 ca         1 5XG       0.234600
     11 C19          2.3480     0.7200    -0.9540 c6         1 5XG       0.235800
     12 C21          2.2180    -1.6150     0.0310 c5         1 5XG      -0.133000
     13 C23          4.3180    -2.8110     0.1430 c5         1 5XG       0.099000
     14 O26          1.0110    -3.5900    -0.7750 o          1 5XG      -0.633500
     15 C27          1.0500    -1.1360     0.8880 c6         1 5XG      -0.072900
     16 N1          -4.4050    -3.4330    -0.5210 nv         1 5XG      -0.804600
     17 N3          -4.6390    -1.9010     1.2950 na         1 5XG       0.008800
     18 N4          -4.2160    -0.7100     1.7690 nc         1 5XG      -0.295400
     19 C9          -2.2600    -1.0570    -1.2340 ca         1 5XG      -0.049000
     20 C10         -3.1630    -1.2760    -0.1760 ca         1 5XG      -0.203000
     21 C14          0.3950     4.6860    -0.5770 ca         1 5XG       0.427200
     22 CL1          2.8750     3.7160    -0.3800 cl         1 5XG      -0.107400
     23 N18          1.2180     1.0910    -0.1280 nh         1 5XG      -0.718000
     24 C20          2.2900    -0.7720    -1.2540 c6         1 5XG      -0.072900
     25 C22          3.5620    -1.6410     0.7740 c5         1 5XG      -0.090400
     26 N24          3.2410    -3.6780    -0.2820 ns         1 5XG      -0.580900
     27 C25          2.0460    -3.0750    -0.3860 c          1 5XG       0.708500
     28 C28          1.1090     0.3630     1.1240 c6         1 5XG       0.235800
     29 H1          -2.6340     1.5880     1.6520 ha         1 5XG       0.144000
     30 H2          -0.8200     0.2900    -2.0240 ha         1 5XG       0.135000
     31 H3          -2.6140     3.5300    -0.3450 h4         1 5XG       0.030100
     32 H4           2.3040     1.2720    -1.8930 h1         1 5XG       0.042450
     33 H5           3.3080     0.9690    -0.4860 h1         1 5XG       0.042450
     34 H6           4.9280    -2.4920    -0.7070 h1         1 5XG       0.043700
     35 H7           4.9740    -3.3160     0.8520 h1         1 5XG       0.043700
     36 H8           0.1080    -1.3870     0.3970 hc         1 5XG       0.061450
     37 H9           1.0640    -1.6490     1.8530 hc         1 5XG       0.061450
     38 H10         -4.8220    -4.1700     0.0270 hn         1 5XG       0.406300
     39 H11         -3.6870    -3.7900    -1.1310 hn         1 5XG       0.406300
     40 H12         -5.3430    -2.4090     1.8080 hn         1 5XG       0.314700
     41 H13         -2.1510    -1.7740    -2.0380 ha         1 5XG       0.133000
     42 H14          0.8900     5.6430    -0.7020 h4         1 5XG       0.031100
     43 H15          1.4140    -0.9770    -1.8750 hc         1 5XG       0.061450
     44 H16          3.1720    -1.0440    -1.8420 hc         1 5XG       0.061450
     45 H17          4.1270    -0.7130     0.7090 hc         1 5XG       0.058700
     46 H18          3.3930    -1.8440     1.8350 hc         1 5XG       0.058700
     47 H19          3.4000    -4.6130    -0.6230 hn         1 5XG       0.326500
     48 H20          0.2140     0.6880     1.6530 h1         1 5XG       0.042450
     49 H21          1.9610     0.6100     1.7740 h1         1 5XG       0.042450
@<TRIPOS>BOND
     1     1    16 1   
     2     1    17 1   
     3     1    20 2   
     4     2     3 ar  
     5     2    18 2   
     6     2    20 ar  
     7     3     4 ar  
     8     3    29 1   
     9     4     5 ar  
    10     4     6 1   
    11     5    19 ar  
    12     5    30 1   
    13     6     7 ar  
    14     6    10 ar  
    15     7     8 ar  
    16     7    31 1   
    17     8    21 ar  
    18     9    10 ar  
    19     9    21 ar  
    20     9    22 1   
    21    10    23 1   
    22    11    23 1   
    23    11    24 1   
    24    11    32 1   
    25    11    33 1   
    26    12    15 1   
    27    12    24 1   
    28    12    25 1   
    29    12    27 1   
    30    13    25 1   
    31    13    26 1   
    32    13    34 1   
    33    13    35 1   
    34    14    27 2   
    35    15    28 1   
    36    15    36 1   
    37    15    37 1   
    38    16    38 1   
    39    16    39 1   
    40    17    18 1   
    41    17    40 1   
    42    19    20 ar  
    43    19    41 1   
    44    21    42 1   
    45    23    28 1   
    46    24    43 1   
    47    24    44 1   
    48    25    45 1   
    49    25    46 1   
    50    26    27 1   
    51    26    47 1   
    52    28    48 1   
    53    28    49 1   
@<TRIPOS>SUBSTRUCTURE
     1 5XG         1 TEMP              0 ****  ****    0 ROOT
