@<TRIPOS>MOLECULE
5XH
   69    72     1     0     0
SMALL
abcg2


@<TRIPOS>ATOM
      1 C1           6.1500     0.5140     1.6430 c3         1 5XH       0.150100
      2 C2           4.8840     0.0470    -0.3390 c3         1 5XH       0.186000
      3 C3           3.5410     0.3740     0.2210 c2         1 5XH      -0.115200
      4 O1          -1.6020    -2.4620    -0.3990 o          1 5XH      -0.556100
      5 C11         -2.3440    -0.0930     0.8630 cc         1 5XH       0.485400
      6 C12         -0.8030    -1.8340     0.2640 c          1 5XH       0.623700
      7 C13          0.5980    -2.3160     0.4670 ca         1 5XH      -0.110600
      8 C14          1.1840    -2.3480     1.7240 ca         1 5XH      -0.126000
      9 C15          2.4610    -2.8810     1.8300 ca         1 5XH       0.337900
     10 C16          2.6100    -3.2770    -0.4170 ca         1 5XH       0.338300
     11 C17          3.4380    -3.7810    -1.5580 c3         1 5XH      -0.142400
     12 C18          1.3200    -2.7940    -0.6180 ca         1 5XH      -0.128000
     13 C19         -4.4010     0.2360     1.2270 ca         1 5XH       0.082400
     14 C20         -5.7270     0.1280     1.6440 ca         1 5XH      -0.050000
     15 C21         -6.5760     1.1700     1.3390 ca         1 5XH      -0.131000
     16 C22         -6.1130     2.2940     0.6440 ca         1 5XH      -0.100000
     17 C23         -4.8010     2.4390     0.2140 ca         1 5XH      -0.081300
     18 C24         -4.3920     3.6950    -0.5010 c3         1 5XH      -0.039800
     19 C25         -3.9510     1.3630     0.5140 ca         1 5XH      -0.068200
     20 C26         -0.6810     2.6860     0.3550 c3         1 5XH       0.078000
     21 C27          6.9240    -1.1260     0.0890 c3         1 5XH       0.150100
     22 C5           1.5010     1.6670     0.5070 c          1 5XH       0.618300
     23 C4           2.8730     1.5010    -0.0200 ce         1 5XH      -0.317200
     24 N1           5.7660    -0.4890     0.6750 n3         1 5XH      -0.704600
     25 N2           0.6950     2.5790    -0.0740 n          1 5XH      -0.387800
     26 C10         -1.6930     1.9110    -0.5370 c3         1 5XH       0.070300
     27 C9          -1.0950     1.1100    -1.6990 c3         1 5XH      -0.086400
     28 C8          -0.5060     1.9950    -2.8010 c3         1 5XH      -0.071400
     29 C7           0.9080     2.5020    -2.5450 c3         1 5XH      -0.103400
     30 C6           1.0520     3.3260    -1.2770 c3         1 5XH       0.103000
     31 N3          -2.6110     1.1100     0.2730 na         1 5XH      -0.200600
     32 N6          -3.3720    -0.6420     1.4340 nd         1 5XH      -0.563100
     33 N5           3.1590    -3.3270     0.7960 nb         1 5XH      -0.658000
     34 H1           6.7300     1.3420     1.2040 h1         1 5XH       0.033200
     35 H2           5.2690     0.9440     2.1210 h1         1 5XH       0.033200
     36 H3           6.7610     0.0600     2.4250 h1         1 5XH       0.033200
     37 H4           4.7370    -0.7280    -1.1000 h1         1 5XH       0.041700
     38 H5           5.3110     0.9200    -0.8620 h1         1 5XH       0.041700
     39 H6           3.0820    -0.4000     0.8260 ha         1 5XH       0.207000
     40 H8           0.6680    -1.9980     2.6070 ha         1 5XH       0.140000
     41 H9           2.9390    -2.9450     2.8010 h4         1 5XH       0.025100
     42 H10          3.5740    -4.8620    -1.4860 hc         1 5XH       0.049367
     43 H11          2.9770    -3.5640    -2.5190 hc         1 5XH       0.049367
     44 H12          4.4310    -3.3310    -1.5410 hc         1 5XH       0.049367
     45 H13          0.8960    -2.7840    -1.6130 ha         1 5XH       0.132000
     46 H14         -6.0640    -0.7430     2.1910 ha         1 5XH       0.132000
     47 H15         -7.6140     1.1310     1.6440 ha         1 5XH       0.114000
     48 H16         -6.8100     3.0980     0.4370 ha         1 5XH       0.107000
     49 H17         -3.5340     4.1820    -0.0330 hc         1 5XH       0.038367
     50 H18         -4.1400     3.5160    -1.5490 hc         1 5XH       0.038367
     51 H19         -5.2110     4.4120    -0.4900 hc         1 5XH       0.038367
     52 H20         -0.7610     2.3590     1.3880 h1         1 5XH       0.072700
     53 H21         -0.9480     3.7440     0.3500 h1         1 5XH       0.072700
     54 H22          7.5340    -1.5790     0.8710 h1         1 5XH       0.033200
     55 H23          6.6110    -1.9220    -0.5900 h1         1 5XH       0.033200
     56 H24          7.5670    -0.4330    -0.4770 h1         1 5XH       0.033200
     57 H25          3.3240     2.2730    -0.6300 ha         1 5XH       0.184000
     58 H28         -2.3280     2.6520    -1.0110 h1         1 5XH       0.066700
     59 H29         -0.3450     0.3920    -1.3660 hc         1 5XH       0.062700
     60 H30         -1.9130     0.5270    -2.1270 hc         1 5XH       0.062700
     61 H31         -0.4930     1.4160    -3.7260 hc         1 5XH       0.045700
     62 H32         -1.1770     2.8410    -2.9880 hc         1 5XH       0.045700
     63 H33          1.5980     1.6520    -2.5070 hc         1 5XH       0.051200
     64 H34          0.3910     4.1930    -1.3170 h1         1 5XH       0.053700
     65 H35         -0.2900    -0.0840     1.2230 hn         1 5XH       0.380500
     66 H7           1.2280     3.1180    -3.3890 hc         1 5XH       0.051200
     67 H26          2.0610     3.7260    -1.1870 h1         1 5XH       0.053700
     68 N4          -1.0720    -0.6450     0.8620 ns         1 5XH      -0.440400
     69 O2           1.1090     0.9640     1.4480 o          1 5XH      -0.648100
@<TRIPOS>BOND
     1     1    24 1   
     2     1    34 1   
     3     1    35 1   
     4     1    36 1   
     5     2     3 1   
     6     2    24 1   
     7     2    37 1   
     8     2    38 1   
     9     3    23 2   
    10     3    39 1   
    11     4     6 2   
    12     5    31 1   
    13     5    32 2   
    14     5    68 1   
    15     6     7 1   
    16     6    68 1   
    17     7     8 ar  
    18     7    12 ar  
    19     8     9 ar  
    20     8    40 1   
    21     9    33 ar  
    22     9    41 1   
    23    10    11 1   
    24    10    12 ar  
    25    10    33 ar  
    26    11    42 1   
    27    11    43 1   
    28    11    44 1   
    29    12    45 1   
    30    13    14 ar  
    31    13    19 ar  
    32    13    32 1   
    33    14    15 ar  
    34    14    46 1   
    35    15    16 ar  
    36    15    47 1   
    37    16    17 ar  
    38    16    48 1   
    39    17    18 1   
    40    17    19 ar  
    41    18    49 1   
    42    18    50 1   
    43    18    51 1   
    44    19    31 1   
    45    20    25 1   
    46    20    26 1   
    47    20    52 1   
    48    20    53 1   
    49    21    24 1   
    50    21    54 1   
    51    21    55 1   
    52    21    56 1   
    53    22    23 1   
    54    22    25 1   
    55    22    69 2   
    56    23    57 1   
    57    25    30 1   
    58    26    27 1   
    59    26    31 1   
    60    26    58 1   
    61    27    28 1   
    62    27    59 1   
    63    27    60 1   
    64    28    29 1   
    65    28    61 1   
    66    28    62 1   
    67    29    30 1   
    68    29    63 1   
    69    29    66 1   
    70    30    64 1   
    71    30    67 1   
    72    65    68 1   
@<TRIPOS>SUBSTRUCTURE
     1 5XH         1 TEMP              0 ****  ****    0 ROOT
