@<TRIPOS>MOLECULE
5XH
   69    72     1     0     0
SMALL
No Charge or Current Charge


@<TRIPOS>ATOM
      1 C1           6.2270     1.0420     0.9840 c3         1 5XH       0.150100
      2 C2           4.9170    -0.0950    -0.7830 c3         1 5XH       0.186000
      3 C3           3.5750     0.2020    -0.1510 c2         1 5XH      -0.115200
      4 O1          -1.3760    -2.7620    -0.8230 o          1 5XH      -0.556100
      5 C11         -2.3060    -0.2330     0.2340 cc         1 5XH       0.485400
      6 C12         -0.6980    -2.0720    -0.0740 c          1 5XH       0.623700
      7 C13          0.5670    -2.6110     0.5540 ca         1 5XH      -0.110600
      8 C14          1.0380    -2.1740     1.8120 ca         1 5XH      -0.126000
      9 C15          2.2140    -2.7300     2.3450 ca         1 5XH       0.337900
     10 C16          2.4810    -4.1220     0.5150 ca         1 5XH       0.338300
     11 C17          3.3110    -5.2010    -0.1560 c3         1 5XH      -0.142400
     12 C18          1.3100    -3.6250    -0.0870 ca         1 5XH      -0.128000
     13 C19         -4.4390     0.0040     0.3620 ca         1 5XH       0.082400
     14 C20         -5.8130    -0.2410     0.4860 ca         1 5XH      -0.050000
     15 C21         -6.6810     0.8570     0.6250 ca         1 5XH      -0.131000
     16 C22         -6.1620     2.1700     0.6720 ca         1 5XH      -0.100000
     17 C23         -4.7740     2.4090     0.5530 ca         1 5XH      -0.081300
     18 C24         -4.2650     3.8380     0.7110 c3         1 5XH      -0.039800
     19 C25         -3.9370     1.2820     0.3490 ca         1 5XH      -0.068200
     20 C26         -0.6570     2.7680     0.4540 c3         1 5XH       0.078000
     21 C27          7.2500    -0.7450    -0.3580 c3         1 5XH       0.150100
     22 C5           1.5610     1.5910     0.4030 c          1 5XH       0.618300
     23 C4           2.9140     1.3860    -0.1980 ce         1 5XH      -0.317200
     24 N1           5.9990    -0.2090     0.2220 n3         1 5XH      -0.704600
     25 N2           0.7340     2.6460    -0.0440 n          1 5XH      -0.387800
     26 C10         -1.7400     2.1770    -0.4900 c3         1 5XH       0.070300
     27 C9          -1.2420     1.7050    -1.8920 c3         1 5XH      -0.086400
     28 C8          -0.6250     2.8170    -2.7820 c3         1 5XH      -0.071400
     29 C7           0.8610     3.1410    -2.4930 c3         1 5XH      -0.103400
     30 C6           1.1460     3.6340    -1.0630 c3         1 5XH       0.103000
     31 N3          -2.5730     1.1450     0.1850 na         1 5XH      -0.200600
     32 N6          -3.4360    -0.9520     0.2960 nd         1 5XH      -0.563100
     33 N5           2.9300    -3.6860     1.7120 nb         1 5XH      -0.658000
     34 H1           6.5400     1.8560     0.3170 h1         1 5XH       0.033200
     35 H2           5.3170     1.3570     1.5100 h1         1 5XH       0.033200
     36 H3           7.0120     0.8970     1.7390 h1         1 5XH       0.033200
     37 H4           4.8280    -1.0360    -1.3420 h1         1 5XH       0.041700
     38 H5           5.1600     0.6890    -1.5150 h1         1 5XH       0.041700
     39 H6           3.1540    -0.6540     0.3780 ha         1 5XH       0.207000
     40 H8           0.5020    -1.4310     2.3950 ha         1 5XH       0.140000
     41 H9           2.5900    -2.4040     3.3140 h4         1 5XH       0.025100
     42 H10          3.0850    -6.1850     0.2690 hc         1 5XH       0.049367
     43 H11          3.1110    -5.2460    -1.2330 hc         1 5XH       0.049367
     44 H12          4.3840    -5.0150    -0.0280 hc         1 5XH       0.049367
     45 H13          0.9920    -4.0170    -1.0500 ha         1 5XH       0.132000
     46 H14         -6.1950    -1.2590     0.4890 ha         1 5XH       0.132000
     47 H15         -7.7510     0.6930     0.7260 ha         1 5XH       0.114000
     48 H16         -6.8460     3.0030     0.8190 ha         1 5XH       0.107000
     49 H17         -3.3140     3.8690     1.2540 hc         1 5XH       0.038367
     50 H18         -4.1300     4.3230    -0.2630 hc         1 5XH       0.038367
     51 H19         -4.9730     4.4510     1.2820 hc         1 5XH       0.038367
     52 H20         -0.7460     2.3140     1.4500 h1         1 5XH       0.072700
     53 H21         -0.8780     3.8340     0.5990 h1         1 5XH       0.072700
     54 H22          8.0080    -0.8950     0.4220 h1         1 5XH       0.033200
     55 H23          7.0700    -1.7150    -0.8430 h1         1 5XH       0.033200
     56 H24          7.6610    -0.0570    -1.1090 h1         1 5XH       0.033200
     57 H25          3.3480     2.2020    -0.7640 ha         1 5XH       0.184000
     58 H28         -2.4020     3.0110    -0.7330 h1         1 5XH       0.066700
     59 H29         -0.5270     0.8800    -1.7940 hc         1 5XH       0.062700
     60 H30         -2.1060     1.2940    -2.4300 hc         1 5XH       0.062700
     61 H31         -0.7000     2.4990    -3.8290 hc         1 5XH       0.045700
     62 H32         -1.2250     3.7320    -2.6990 hc         1 5XH       0.045700
     63 H33          1.4670     2.2480    -2.6920 hc         1 5XH       0.051200
     64 H34          0.5840     4.5630    -0.9020 h1         1 5XH       0.053700
     65 H35         -0.3070    -0.2320     0.6780 hn         1 5XH       0.380500
     66 H7           1.1990     3.9080    -3.2000 hc         1 5XH       0.051200
     67 H26          2.2030     3.9000    -0.9470 h1         1 5XH       0.053700
     68 N4          -1.0540    -0.7930     0.2770 ns         1 5XH      -0.440400
     69 O2           1.1210     0.7790     1.2020 o          1 5XH      -0.648100
@<TRIPOS>BOND
     1     1    24 1   
     2     1    34 1   
     3     1    35 1   
     4     1    36 1   
     5     2     3 1   
     6     2    24 1   
     7     2    37 1   
     8     2    38 1   
     9     3    23 2   
    10     3    39 1   
    11     4     6 2   
    12     5    31 1   
    13     5    32 2   
    14     5    68 1   
    15     6     7 1   
    16     6    68 1   
    17     7     8 ar  
    18     7    12 ar  
    19     8     9 ar  
    20     8    40 1   
    21     9    33 ar  
    22     9    41 1   
    23    10    11 1   
    24    10    12 ar  
    25    10    33 ar  
    26    11    42 1   
    27    11    43 1   
    28    11    44 1   
    29    12    45 1   
    30    13    14 ar  
    31    13    19 ar  
    32    13    32 1   
    33    14    15 ar  
    34    14    46 1   
    35    15    16 ar  
    36    15    47 1   
    37    16    17 ar  
    38    16    48 1   
    39    17    18 1   
    40    17    19 ar  
    41    18    49 1   
    42    18    50 1   
    43    18    51 1   
    44    19    31 1   
    45    20    25 1   
    46    20    26 1   
    47    20    52 1   
    48    20    53 1   
    49    21    24 1   
    50    21    54 1   
    51    21    55 1   
    52    21    56 1   
    53    22    23 1   
    54    22    25 1   
    55    22    69 2   
    56    23    57 1   
    57    25    30 1   
    58    26    27 1   
    59    26    31 1   
    60    26    58 1   
    61    27    28 1   
    62    27    59 1   
    63    27    60 1   
    64    28    29 1   
    65    28    61 1   
    66    28    62 1   
    67    29    30 1   
    68    29    63 1   
    69    29    66 1   
    70    30    64 1   
    71    30    67 1   
    72    65    68 1   
@<TRIPOS>SUBSTRUCTURE
     1 5XH         1 TEMP              0 ****  ****    0 ROOT
