@<TRIPOS>MOLECULE
5XI
   55    58     1     0     0
SMALL
No Charge or Current Charge


@<TRIPOS>ATOM
      1 C14        130.5860   133.9050   152.8020 c6         1 5XI       0.218500
      2 C13        129.6200   133.8460   149.5260 c6         1 5XI      -0.126900
      3 C12        129.2800   133.0350   150.7990 c6         1 5XI       0.196800
      4 C16        131.3100   134.3360   155.2040 c6         1 5XI       0.103500
      5 C17        131.2470   136.2580   153.5340 c6         1 5XI       0.103500
      6 C20        132.3950   138.9390   156.4800 c3         1 5XI       0.169900
      7 C11        131.6750   132.3530   151.0600 c6         1 5XI       0.196800
      8 C8         131.1220   134.1880   143.9180 c3         1 5XI       0.105300
      9 C6         131.3060   135.3720   147.3940 ca         1 5XI       0.011600
     10 C7         131.1940   133.3300   146.3010 c          1 5XI       0.593000
     11 C2         131.9730   137.6560   147.8300 ca         1 5XI      -0.113000
     12 C5         131.3700   135.6200   146.0260 ca         1 5XI      -0.000400
     13 C4         131.7750   136.8640   145.5210 ca         1 5XI      -0.110000
     14 C3         132.0270   137.9030   146.4390 ca         1 5XI      -0.110000
     15 C1         131.6620   136.3690   148.3170 ca         1 5XI      -0.111000
     16 C10        132.0620   133.1570   149.7930 c6         1 5XI      -0.126900
     17 C15        131.3530   133.3500   154.0180 c6         1 5XI      -0.120400
     18 C18        131.2710   135.2220   152.3870 c6         1 5XI      -0.120400
     19 C9         130.8640   133.2520   148.8220 c6         1 5XI       0.129700
     20 N1         131.3260   134.3640   145.3660 n          1 5XI      -0.291000
     21 N2         131.2100   133.9520   147.5600 n          1 5XI      -0.291000
     22 N3         130.4370   132.8630   151.7310 n3         1 5XI      -0.777600
     23 N4         131.6770   135.7450   154.8730 n          1 5XI      -0.394800
     24 O1         131.0480   132.1370   146.0650 o          1 5XI      -0.569000
     25 O2         132.1650   136.2720   157.0800 o          1 5XI      -0.542000
     26 O3         132.0780   137.9320   155.5020 os         1 5XI      -0.456100
     27 H1         129.5770   134.1620   153.1600 h1         1 5XI       0.047700
     28 H2         129.7650   134.9020   149.7690 hc         1 5XI       0.054200
     29 H3         128.7630   133.8120   148.8410 hc         1 5XI       0.054200
     30 H4         128.4270   133.5020   151.3140 h1         1 5XI       0.051950
     31 H5         128.9340   132.0400   150.4780 h1         1 5XI       0.051950
     32 H6         130.2930   134.3400   155.6230 h1         1 5XI       0.061950
     33 H7         131.9770   133.9590   155.9930 h1         1 5XI       0.061950
     34 H8         131.8850   137.1010   153.2350 h1         1 5XI       0.061950
     35 H9         130.2240   136.6500   153.6340 h1         1 5XI       0.061950
     36 H10        132.4330   139.9290   156.0100 h1         1 5XI       0.047367
     37 H11        131.6350   138.9680   157.2720 h1         1 5XI       0.047367
     38 H12        133.3720   138.7430   156.9420 h1         1 5XI       0.047367
     39 H13        131.5050   131.3100   150.7520 h1         1 5XI       0.051950
     40 H14        132.5320   132.3270   151.7480 h1         1 5XI       0.051950
     41 H15        131.2880   133.1420   143.6340 h1         1 5XI       0.051033
     42 H16        130.0960   134.4750   143.6550 h1         1 5XI       0.051033
     43 H17        131.8270   134.8210   143.3650 h1         1 5XI       0.051033
     44 H18        132.2200   138.4520   148.5290 ha         1 5XI       0.114000
     45 H19        131.9020   137.0220   144.4530 ha         1 5XI       0.122000
     46 H20        132.3160   138.8870   146.0750 ha         1 5XI       0.116000
     47 H21        131.7070   136.1680   149.3810 ha         1 5XI       0.120000
     48 H22        132.9000   132.6550   149.2920 hc         1 5XI       0.054200
     49 H23        132.4260   134.1530   150.0620 hc         1 5XI       0.054200
     50 H24        130.9240   132.3890   154.3280 hc         1 5XI       0.054450
     51 H25        132.4020   133.1590   153.7600 hc         1 5XI       0.054450
     52 H26        132.3160   135.0340   152.1140 hc         1 5XI       0.054450
     53 H27        130.7820   135.6650   151.5160 hc         1 5XI       0.054450
     54 H28        130.6000   132.2170   148.5560 h1         1 5XI       0.086700
     55 C19        131.9900   136.6320   155.9240 c          1 5XI       0.639100
@<TRIPOS>BOND
     1     1    17 1   
     2     1    18 1   
     3     1    22 1   
     4     1    27 1   
     5     2     3 1   
     6     2    19 1   
     7     2    28 1   
     8     2    29 1   
     9     3    22 1   
    10     3    30 1   
    11     3    31 1   
    12     4    17 1   
    13     4    23 1   
    14     4    32 1   
    15     4    33 1   
    16     5    18 1   
    17     5    23 1   
    18     5    34 1   
    19     5    35 1   
    20     6    26 1   
    21     6    36 1   
    22     6    37 1   
    23     6    38 1   
    24     7    16 1   
    25     7    22 1   
    26     7    39 1   
    27     7    40 1   
    28     8    20 1   
    29     8    41 1   
    30     8    42 1   
    31     8    43 1   
    32     9    12 ar  
    33     9    15 ar  
    34     9    21 1   
    35    10    20 1   
    36    10    21 1   
    37    10    24 2   
    38    11    14 ar  
    39    11    15 ar  
    40    11    44 1   
    41    12    13 ar  
    42    12    20 1   
    43    13    14 ar  
    44    13    45 1   
    45    14    46 1   
    46    15    47 1   
    47    16    19 1   
    48    16    48 1   
    49    16    49 1   
    50    17    50 1   
    51    17    51 1   
    52    18    52 1   
    53    18    53 1   
    54    19    21 1   
    55    19    54 1   
    56    23    55 1   
    57    25    55 2   
    58    26    55 1   
@<TRIPOS>SUBSTRUCTURE
     1 5XI         1 TEMP              0 ****  ****    0 ROOT
