@<TRIPOS>MOLECULE
5XI
   55    58     1     0     0
SMALL
abcg2


@<TRIPOS>ATOM
      1 C14        130.3140   133.9250   152.8320 c6         1 5XI       0.218500
      2 C13        129.6940   133.6010   149.5400 c6         1 5XI      -0.126900
      3 C12        129.5460   132.7340   150.7930 c6         1 5XI       0.196800
      4 C16        130.5650   134.4550   155.2860 c6         1 5XI       0.103500
      5 C17        130.4190   136.2870   153.7100 c6         1 5XI       0.103500
      6 C20        133.6620   138.0760   155.5130 c3         1 5XI       0.169900
      7 C11        131.9040   132.8290   151.2520 c6         1 5XI       0.196800
      8 C8         131.9210   134.2310   144.1730 c3         1 5XI       0.105300
      9 C6         131.2830   135.4840   147.5210 ca         1 5XI       0.011600
     10 C7         131.5330   133.4760   146.5180 c          1 5XI       0.593000
     11 C2         131.1400   137.8390   147.8280 ca         1 5XI      -0.113000
     12 C5         131.5190   135.6970   146.1560 ca         1 5XI      -0.000400
     13 C4         131.5710   136.9660   145.6120 ca         1 5XI      -0.110000
     14 C3         131.3760   138.0430   146.4740 ca         1 5XI      -0.110000
     15 C1         131.0900   136.5570   148.3730 ca         1 5XI      -0.111000
     16 C10        132.1630   133.6750   149.9990 c6         1 5XI      -0.126900
     17 C15        130.8980   133.4690   154.1720 c6         1 5XI      -0.120400
     18 C18        130.7560   135.3660   152.5410 c6         1 5XI      -0.120400
     19 C9         131.0870   133.3880   148.9570 c6         1 5XI       0.129700
     20 N1         131.6670   134.4610   145.5710 n          1 5XI      -0.291000
     21 N2         131.2970   134.1150   147.7170 n          1 5XI      -0.291000
     22 N3         130.5670   132.9380   151.7970 n3         1 5XI      -0.777600
     23 N4         131.0140   135.7920   154.9400 n          1 5XI      -0.394800
     24 O1         131.6070   132.2740   146.3310 o          1 5XI      -0.569000
     25 O2         132.7300   135.7730   156.4330 o          1 5XI      -0.542000
     26 O3         132.5220   137.4400   154.9480 os         1 5XI      -0.456100
     27 H1         129.2250   133.9480   152.9610 h1         1 5XI       0.047700
     28 H2         129.5240   134.6520   149.7840 hc         1 5XI       0.054200
     29 H3         128.9360   133.3150   148.8060 hc         1 5XI       0.054200
     30 H4         128.5640   132.8910   151.2430 h1         1 5XI       0.051950
     31 H5         129.5780   131.6830   150.4770 h1         1 5XI       0.051950
     32 H6         129.4810   134.4910   155.4340 h1         1 5XI       0.061950
     33 H7         131.0080   134.1480   156.2280 h1         1 5XI       0.061950
     34 H8         130.7390   137.3050   153.5100 h1         1 5XI       0.061950
     35 H9         129.3340   136.3180   153.8530 h1         1 5XI       0.061950
     36 H10        133.8210   138.9750   154.9250 h1         1 5XI       0.047367
     37 H11        133.4950   138.3550   156.5540 h1         1 5XI       0.047367
     38 H12        134.5510   137.4480   155.4510 h1         1 5XI       0.047367
     39 H13        132.0820   131.7780   150.9870 h1         1 5XI       0.051950
     40 H14        132.6390   133.0730   152.0210 h1         1 5XI       0.051950
     41 H15        132.0080   133.1620   143.9990 h1         1 5XI       0.051033
     42 H16        131.1060   134.6190   143.5620 h1         1 5XI       0.051033
     43 H17        132.8500   134.7120   143.8660 h1         1 5XI       0.051033
     44 H18        130.9910   138.6900   148.4790 ha         1 5XI       0.114000
     45 H19        131.7530   137.1200   144.5570 ha         1 5XI       0.122000
     46 H20        131.4100   139.0500   146.0800 ha         1 5XI       0.116000
     47 H21        130.9040   136.4260   149.4290 ha         1 5XI       0.120000
     48 H22        133.1470   133.4270   149.5940 hc         1 5XI       0.054200
     49 H23        132.1800   134.7360   150.2540 hc         1 5XI       0.054200
     50 H24        130.4930   132.4870   154.4240 hc         1 5XI       0.054450
     51 H25        131.9850   133.3630   154.1020 hc         1 5XI       0.054450
     52 H26        131.8350   135.4070   152.3640 hc         1 5XI       0.054450
     53 H27        130.2620   135.7420   151.6420 hc         1 5XI       0.054450
     54 H28        131.1670   132.3330   148.6820 h1         1 5XI       0.086700
     55 C19        132.1360   136.2880   155.5050 c          1 5XI       0.639100
@<TRIPOS>BOND
     1     1    17 1   
     2     1    18 1   
     3     1    22 1   
     4     1    27 1   
     5     2     3 1   
     6     2    19 1   
     7     2    28 1   
     8     2    29 1   
     9     3    22 1   
    10     3    30 1   
    11     3    31 1   
    12     4    17 1   
    13     4    23 1   
    14     4    32 1   
    15     4    33 1   
    16     5    18 1   
    17     5    23 1   
    18     5    34 1   
    19     5    35 1   
    20     6    26 1   
    21     6    36 1   
    22     6    37 1   
    23     6    38 1   
    24     7    16 1   
    25     7    22 1   
    26     7    39 1   
    27     7    40 1   
    28     8    20 1   
    29     8    41 1   
    30     8    42 1   
    31     8    43 1   
    32     9    12 ar  
    33     9    15 ar  
    34     9    21 1   
    35    10    20 1   
    36    10    21 1   
    37    10    24 2   
    38    11    14 ar  
    39    11    15 ar  
    40    11    44 1   
    41    12    13 ar  
    42    12    20 1   
    43    13    14 ar  
    44    13    45 1   
    45    14    46 1   
    46    15    47 1   
    47    16    19 1   
    48    16    48 1   
    49    16    49 1   
    50    17    50 1   
    51    17    51 1   
    52    18    52 1   
    53    18    53 1   
    54    19    21 1   
    55    19    54 1   
    56    23    55 1   
    57    25    55 2   
    58    26    55 1   
@<TRIPOS>SUBSTRUCTURE
     1 5XI         1 TEMP              0 ****  ****    0 ROOT
