@<TRIPOS>MOLECULE
5XJ
   47    50     1     0     0
SMALL
No Charge or Current Charge


@<TRIPOS>ATOM
      1 C28          4.0990     1.8570    -0.7360 c3         1 5XJ       0.175600
      2 N26          5.1950     0.9100    -0.4370 n3         1 5XJ      -0.755500
      3 C29          5.4660    -0.0330    -1.5430 c3         1 5XJ       0.175600
      4 S24          5.2150     0.2420     1.1440 s6         1 5XJ       1.268200
      5 O25          5.9260    -1.0350     1.0980 o          1 5XJ      -0.536500
      6 O27          5.6350     1.2970     2.0640 o          1 5XJ      -0.536500
      7 N7           3.6370    -0.1090     1.4970 nu         1 5XJ      -0.892100
      8 C3           2.7100    -0.8260     0.7200 ca         1 5XJ       0.196000
      9 C2           1.4050    -0.3110     0.5190 ca         1 5XJ       0.168000
     10 F31          1.0680     0.8620     1.1210 f          1 5XJ      -0.166000
     11 C4           3.0440    -2.0770     0.1660 ca         1 5XJ      -0.049000
     12 C5           2.1020    -2.7980    -0.5860 ca         1 5XJ      -0.145000
     13 C6           0.8190    -2.2720    -0.7980 ca         1 5XJ       0.169000
     14 F30         -0.0670    -2.9920    -1.5280 f          1 5XJ      -0.165000
     15 C1           0.4500    -1.0130    -0.2670 ca         1 5XJ       0.224000
     16 N8          -0.8540    -0.5110    -0.5080 nu         1 5XJ      -0.936900
     17 C9          -1.3310     0.7100    -0.9240 ca         1 5XJ       0.663900
     18 N14         -0.3770     1.5250    -1.3840 nb         1 5XJ      -0.757000
     19 C13         -0.7520     2.7410    -1.8290 ca         1 5XJ       0.407900
     20 C12         -2.0850     3.1700    -1.8390 ca         1 5XJ      -0.225000
     21 C11         -3.0840     2.3060    -1.3730 ca         1 5XJ      -0.027000
     22 C10         -2.7110     1.0270    -0.9000 cp         1 5XJ      -0.268500
     23 C15         -3.7490     0.0740    -0.4060 cp         1 5XJ       0.232500
     24 N16         -3.7470    -1.2000    -0.8640 nb         1 5XJ      -0.229000
     25 C17         -4.7290    -2.0340    -0.4180 ca         1 5XJ       0.124900
     26 N18         -5.7250    -1.7330     0.4570 nb         1 5XJ      -0.110000
     27 C19         -5.7250    -0.4680     0.9200 ca         1 5XJ       0.236000
     28 C20         -4.7760     0.4060     0.4990 ca         1 5XJ      -0.191200
     29 N23         -4.9500     1.6060     1.1160 na         1 5XJ      -0.296600
     30 C22         -6.0690     1.4410     1.9300 cc         1 5XJ       0.440700
     31 N21         -6.5640     0.1810     1.8300 nd         1 5XJ      -0.632700
     32 H1           3.1400     1.3390    -0.8640 h1         1 5XJ       0.055033
     33 H2           3.9890     2.6000     0.0650 h1         1 5XJ       0.055033
     34 H3           4.3060     2.4020    -1.6660 h1         1 5XJ       0.055033
     35 H4           5.5500     0.5020    -2.4980 h1         1 5XJ       0.055033
     36 H5           6.4110    -0.5690    -1.3860 h1         1 5XJ       0.055033
     37 H6           4.6610    -0.7730    -1.6410 h1         1 5XJ       0.055033
     38 H7           3.3050     0.7530     1.9080 hn         1 5XJ       0.496000
     39 H8           4.0260    -2.5090     0.3330 ha         1 5XJ       0.156000
     40 H9           2.3640    -3.7670    -1.0030 ha         1 5XJ       0.146000
     41 H10         -1.5680    -1.2270    -0.6270 hn         1 5XJ       0.553000
     42 H11          0.0430     3.3900    -2.1940 h4         1 5XJ       0.019100
     43 H12         -2.3350     4.1580    -2.2150 ha         1 5XJ       0.131000
     44 H13         -4.1280     2.6120    -1.3970 ha         1 5XJ       0.111000
     45 H14         -4.7130    -3.0530    -0.8020 h5         1 5XJ       0.057100
     46 H15         -4.3860     2.4430     1.0350 hn         1 5XJ       0.368000
     47 H16         -6.4570     2.2390     2.5520 h5         1 5XJ       0.071800
@<TRIPOS>BOND
     1     1     2 1   
     2     1    32 1   
     3     1    33 1   
     4     1    34 1   
     5     2     3 1   
     6     2     4 1   
     7     3    35 1   
     8     3    36 1   
     9     3    37 1   
    10     4     5 2   
    11     4     6 2   
    12     4     7 1   
    13     7     8 1   
    14     7    38 1   
    15     8     9 ar  
    16     8    11 ar  
    17     9    10 1   
    18     9    15 ar  
    19    11    12 ar  
    20    11    39 1   
    21    12    13 ar  
    22    12    40 1   
    23    13    14 1   
    24    13    15 ar  
    25    15    16 1   
    26    16    17 1   
    27    16    41 1   
    28    17    18 ar  
    29    17    22 ar  
    30    18    19 ar  
    31    19    20 ar  
    32    19    42 1   
    33    20    21 ar  
    34    20    43 1   
    35    21    22 ar  
    36    21    44 1   
    37    22    23 1   
    38    23    24 ar  
    39    23    28 ar  
    40    24    25 ar  
    41    25    26 ar  
    42    25    45 1   
    43    26    27 ar  
    44    27    28 ar  
    45    27    31 1   
    46    28    29 1   
    47    29    30 1   
    48    29    46 1   
    49    30    31 2   
    50    30    47 1   
@<TRIPOS>SUBSTRUCTURE
     1 5XJ         1 TEMP              0 ****  ****    0 ROOT
