@<TRIPOS>MOLECULE
5XJ
   47    50     1     0     0
SMALL
bcc


@<TRIPOS>ATOM
      1 C28          3.7860     2.4920     0.1790 c3         1 5XJ       0.175600
      2 N26          4.4190     1.3590    -0.4840 n3         1 5XJ      -0.755500
      3 C29          3.7840     0.9700    -1.7400 c3         1 5XJ       0.175600
      4 S24          5.0990     0.2030     0.4620 s6         1 5XJ       1.409800
      5 O25          5.7100    -0.7610    -0.4290 o          1 5XJ      -0.607300
      6 O27          5.8840     0.8700     1.4800 o          1 5XJ      -0.607300
      7 N7           3.9340    -0.6300     1.3310 nu         1 5XJ      -0.698500
      8 C3           2.9250    -1.3290     0.6340 ca         1 5XJ       0.057600
      9 C2           1.6240    -0.8480     0.5980 ca         1 5XJ       0.132900
     10 F31          1.3310     0.2650     1.2720 f          1 5XJ      -0.130900
     11 C4           3.2010    -2.5280    -0.0120 ca         1 5XJ      -0.067000
     12 C5           2.2120    -3.1990    -0.7100 ca         1 5XJ      -0.163000
     13 C6           0.9440    -2.6580    -0.7590 ca         1 5XJ       0.133900
     14 F30         -0.0170    -3.2850    -1.4460 f          1 5XJ      -0.129900
     15 C1           0.6090    -1.4750    -0.1120 ca         1 5XJ       0.085600
     16 N8          -0.6770    -0.9480    -0.1710 nu         1 5XJ      -0.743300
     17 C9          -0.9430     0.2710    -0.7290 ca         1 5XJ       0.729200
     18 N14          0.0890     0.9520    -1.2090 nb         1 5XJ      -0.757000
     19 C13         -0.1120     2.1310    -1.7750 ca         1 5XJ       0.473200
     20 C12         -1.3630     2.7020    -1.9240 ca         1 5XJ      -0.308300
     21 C11         -2.4440     2.0020    -1.4150 ca         1 5XJ      -0.045000
     22 C10         -2.2690     0.7800    -0.7760 cp         1 5XJ      -0.333800
     23 C15         -3.4180     0.0680    -0.2070 cp         1 5XJ       0.560800
     24 N16         -3.3890    -1.2640    -0.1410 nb         1 5XJ      -0.755000
     25 C17         -4.4320    -1.9380     0.3410 ca         1 5XJ       0.650900
     26 N18         -5.5640    -1.4370     0.7920 nb         1 5XJ      -0.636000
     27 C19         -5.6130    -0.1100     0.7700 ca         1 5XJ       0.564300
     28 C20         -4.5620     0.6910     0.2870 ca         1 5XJ      -0.321800
     29 N23         -4.9940     1.9730     0.4790 na         1 5XJ      -0.246300
     30 C22         -6.2220     1.8920     1.0350 cc         1 5XJ       0.440700
     31 N21         -6.6370     0.6670     1.2200 nd         1 5XJ      -0.632700
     32 H1           2.7550     2.2800     0.4710 h1         1 5XJ       0.055033
     33 H2           4.3500     2.7990     1.0550 h1         1 5XJ       0.055033
     34 H3           3.7770     3.3260    -0.5200 h1         1 5XJ       0.055033
     35 H4           3.8210     1.8300    -2.4080 h1         1 5XJ       0.055033
     36 H5           4.3240     0.1570    -2.2140 h1         1 5XJ       0.055033
     37 H6           2.7380     0.6810    -1.6060 h1         1 5XJ       0.055033
     38 H7           3.6340    -0.1200     2.1550 hn         1 5XJ       0.440800
     39 H8           4.1990    -2.9400     0.0350 ha         1 5XJ       0.174000
     40 H9           2.4260    -4.1310    -1.2150 ha         1 5XJ       0.164000
     41 H10         -1.4750    -1.5700    -0.0840 hn         1 5XJ       0.497800
     42 H11          0.7720     2.6380    -2.1450 h4         1 5XJ       0.019100
     43 H12         -1.4910     3.6500    -2.4260 ha         1 5XJ       0.149000
     44 H13         -3.4380     2.4050    -1.5530 ha         1 5XJ       0.129000
     45 H14         -4.3290    -3.0160     0.3570 h5         1 5XJ       0.057100
     46 H15         -4.4960     2.8330     0.3100 hn         1 5XJ       0.317700
     47 H16         -6.7770     2.7820     1.2890 h5         1 5XJ       0.071800
@<TRIPOS>BOND
     1     1     2 1   
     2     1    32 1   
     3     1    33 1   
     4     1    34 1   
     5     2     3 1   
     6     2     4 1   
     7     3    35 1   
     8     3    36 1   
     9     3    37 1   
    10     4     5 2   
    11     4     6 2   
    12     4     7 1   
    13     7     8 1   
    14     7    38 1   
    15     8     9 ar  
    16     8    11 ar  
    17     9    10 1   
    18     9    15 ar  
    19    11    12 ar  
    20    11    39 1   
    21    12    13 ar  
    22    12    40 1   
    23    13    14 1   
    24    13    15 ar  
    25    15    16 1   
    26    16    17 1   
    27    16    41 1   
    28    17    18 ar  
    29    17    22 ar  
    30    18    19 ar  
    31    19    20 ar  
    32    19    42 1   
    33    20    21 ar  
    34    20    43 1   
    35    21    22 ar  
    36    21    44 1   
    37    22    23 1   
    38    23    24 ar  
    39    23    28 ar  
    40    24    25 ar  
    41    25    26 ar  
    42    25    45 1   
    43    26    27 ar  
    44    27    28 ar  
    45    27    31 1   
    46    28    29 1   
    47    29    30 1   
    48    29    46 1   
    49    30    31 2   
    50    30    47 1   
@<TRIPOS>SUBSTRUCTURE
     1 5XJ         1 TEMP              0 ****  ****    0 ROOT
