@<TRIPOS>MOLECULE
5XK
   40    42     1     0     0
SMALL
No Charge or Current Charge


@<TRIPOS>ATOM
      1 C4          -4.1870    -0.2510    -2.6010 c3         1 5XK      -0.089600
      2 C14          2.0020     0.0280    -0.1500 ca         1 5XK      -0.180600
      3 C5          -3.1000    -0.0260     1.2220 c3         1 5XK       0.003900
      4 C6          -1.7970    -0.7820     1.1350 cc         1 5XK      -0.186300
      5 C11          3.6620    -2.2520    -0.4790 ca         1 5XK      -0.048000
      6 C7          -1.6940    -2.2020     1.1990 cc         1 5XK      -0.125000
      7 C8          -0.3950    -2.6030     0.9840 cd         1 5XK      -0.202000
      8 C9           1.5570    -1.2640     0.2850 ca         1 5XK       0.072800
      9 C10          2.4080    -2.3830     0.1270 ca         1 5XK      -0.155000
     10 C12          4.0900    -0.9990    -0.9270 ca         1 5XK      -0.144000
     11 C13          3.2800     0.1360    -0.7660 ca         1 5XK       0.195000
     12 N1          -0.1460     0.9580     0.5600 ns         1 5XK      -0.383100
     13 C3          -3.8090    -0.6760    -1.1650 c3         1 5XK      -0.074900
     14 Cl           3.9510     1.6510    -1.3780 cl         1 5XK      -0.151000
     15 C15          1.0950     1.2390     0.0540 c          1 5XK       0.586600
     16 O            1.3940     2.3950    -0.2000 o          1 5XK      -0.523000
     17 C16         -0.5380    -0.3090     0.8870 cd         1 5XK       0.007600
     18 N            0.3060    -1.3980     0.9270 na         1 5XK       0.104200
     19 C2          -3.6330     0.4930    -0.1470 c3         1 5XK      -0.057700
     20 C1          -4.9410     1.3270     0.0150 c3         1 5XK      -0.074900
     21 C           -4.8200     2.5740     0.9190 c3         1 5XK      -0.089600
     22 H1          -5.2070     0.1460    -2.6460 hc         1 5XK       0.031200
     23 H2          -3.4950     0.5130    -2.9760 hc         1 5XK       0.031200
     24 H3          -4.1380    -1.1150    -3.2750 hc         1 5XK       0.031200
     25 H4          -3.8650    -0.6620     1.6860 hc         1 5XK       0.045700
     26 H5          -2.9510     0.8170     1.9050 hc         1 5XK       0.045700
     27 H6           4.3050    -3.1220    -0.5980 ha         1 5XK       0.125000
     28 H7          -2.5440    -2.8670     1.3310 ha         1 5XK       0.137000
     29 H8           0.0400    -3.5910     0.9020 h4         1 5XK       0.155000
     30 H9           2.1160    -3.3660     0.4830 ha         1 5XK       0.130000
     31 H10          5.0640    -0.9010    -1.3990 ha         1 5XK       0.138000
     32 H11         -0.7860     1.7400     0.6220 hn         1 5XK       0.346500
     33 H12         -4.5630    -1.3780    -0.7890 hc         1 5XK       0.040700
     34 H13         -2.8700    -1.2380    -1.2350 hc         1 5XK       0.040700
     35 H14         -2.8690     1.1660    -0.5590 hc         1 5XK       0.044700
     36 H15         -5.2720     1.6790    -0.9680 hc         1 5XK       0.040700
     37 H16         -5.7410     0.6820     0.4010 hc         1 5XK       0.040700
     38 H17         -4.6850     2.2940     1.9700 hc         1 5XK       0.031200
     39 H18         -3.9750     3.1990     0.6090 hc         1 5XK       0.031200
     40 H19         -5.7330     3.1770     0.8520 hc         1 5XK       0.031200
@<TRIPOS>BOND
     1     1    13 1   
     2     1    22 1   
     3     1    23 1   
     4     1    24 1   
     5     2     8 ar  
     6     2    11 ar  
     7     2    15 1   
     8     3     4 1   
     9     3    19 1   
    10     3    25 1   
    11     3    26 1   
    12     4     6 1   
    13     4    17 2   
    14     5     9 ar  
    15     5    10 ar  
    16     5    27 1   
    17     6     7 2   
    18     6    28 1   
    19     7    18 1   
    20     7    29 1   
    21     8     9 ar  
    22     8    18 1   
    23     9    30 1   
    24    10    11 ar  
    25    10    31 1   
    26    11    14 1   
    27    12    15 1   
    28    12    17 1   
    29    12    32 1   
    30    13    19 1   
    31    13    33 1   
    32    13    34 1   
    33    15    16 2   
    34    17    18 1   
    35    19    20 1   
    36    19    35 1   
    37    20    21 1   
    38    20    36 1   
    39    20    37 1   
    40    21    38 1   
    41    21    39 1   
    42    21    40 1   
@<TRIPOS>SUBSTRUCTURE
     1 5XK         1 TEMP              0 ****  ****    0 ROOT
