@<TRIPOS>MOLECULE
5XK
   40    42     1     0     0
SMALL
bcc


@<TRIPOS>ATOM
      1 C4          -4.6790    -0.4110    -2.4530 c3         1 5XK      -0.089600
      2 C14          2.0560     0.1050    -0.0480 ca         1 5XK      -0.180600
      3 C5          -3.0950    -0.1340     1.0990 c3         1 5XK       0.003900
      4 C6          -1.8490    -0.9310     0.8830 cc         1 5XK      -0.186300
      5 C11          3.8150    -2.0610    -0.3200 ca         1 5XK      -0.066000
      6 C7          -1.6740    -2.3460     0.9260 cc         1 5XK      -0.143000
      7 C8          -0.3730    -2.6460     0.6540 cd         1 5XK      -0.169300
      8 C9           1.6180    -1.2240     0.1260 ca         1 5XK       0.072800
      9 C10          2.4940    -2.2980    -0.0090 ca         1 5XK      -0.173000
     10 C12          4.2810    -0.7670    -0.5010 ca         1 5XK      -0.162000
     11 C13          3.4100     0.2970    -0.3670 ca         1 5XK       0.103400
     12 N1          -0.1720     0.8580     0.4100 ns         1 5XK      -0.450100
     13 C3          -4.2740    -0.7800    -1.0320 c3         1 5XK      -0.074900
     14 CL           4.0970     1.8610    -0.6210 cl         1 5XK      -0.059400
     15 C15          1.1010     1.2300     0.1090 c          1 5XK       0.729100
     16 O            1.3900     2.4060    -0.0110 o          1 5XK      -0.598500
     17 C16         -0.6130    -0.4310     0.5780 cd         1 5XK       0.058300
     18 N            0.2880    -1.4510     0.4360 na         1 5XK       0.002800
     19 C2          -3.7430     0.3870    -0.1970 c3         1 5XK      -0.057700
     20 C1          -4.8390     1.4100     0.1150 c3         1 5XK      -0.074900
     21 C           -4.3290     2.7170     0.7110 c3         1 5XK      -0.089600
     22 H1          -5.5060     0.3000    -2.4830 hc         1 5XK       0.031200
     23 H2          -3.8430     0.0330    -2.9960 hc         1 5XK       0.031200
     24 H3          -4.9970    -1.2950    -3.0080 hc         1 5XK       0.031200
     25 H4          -3.8250    -0.7470     1.6350 hc         1 5XK       0.045700
     26 H5          -2.8750     0.7050     1.7670 hc         1 5XK       0.045700
     27 H6           4.4970    -2.8930    -0.4250 ha         1 5XK       0.143000
     28 H7          -2.4470    -3.0690     1.1410 ha         1 5XK       0.155000
     29 H8           0.1290    -3.5940     0.5940 h4         1 5XK       0.173000
     30 H9           2.1500    -3.3120     0.1290 ha         1 5XK       0.148000
     31 H10          5.3190    -0.5900    -0.7450 ha         1 5XK       0.156000
     32 H11         -0.8440     1.6040     0.5220 hn         1 5XK       0.346500
     33 H12         -5.1250    -1.2300    -0.5070 hc         1 5XK       0.040700
     34 H13         -3.5080    -1.5580    -1.0840 hc         1 5XK       0.040700
     35 H14         -2.9680     0.8970    -0.7880 hc         1 5XK       0.044700
     36 H15         -5.3840     1.6440    -0.8020 hc         1 5XK       0.040700
     37 H16         -5.5710     0.9520     0.7900 hc         1 5XK       0.040700
     38 H17         -3.8980     2.5850     1.7040 hc         1 5XK       0.031200
     39 H18         -3.5600     3.1620     0.0750 hc         1 5XK       0.031200
     40 H19         -5.1360     3.4430     0.8070 hc         1 5XK       0.031200
@<TRIPOS>BOND
     1     1    13 1   
     2     1    22 1   
     3     1    23 1   
     4     1    24 1   
     5     2     8 ar  
     6     2    11 ar  
     7     2    15 1   
     8     3     4 1   
     9     3    19 1   
    10     3    25 1   
    11     3    26 1   
    12     4     6 1   
    13     4    17 2   
    14     5     9 ar  
    15     5    10 ar  
    16     5    27 1   
    17     6     7 2   
    18     6    28 1   
    19     7    18 1   
    20     7    29 1   
    21     8     9 ar  
    22     8    18 1   
    23     9    30 1   
    24    10    11 ar  
    25    10    31 1   
    26    11    14 1   
    27    12    15 1   
    28    12    17 1   
    29    12    32 1   
    30    13    19 1   
    31    13    33 1   
    32    13    34 1   
    33    15    16 2   
    34    17    18 1   
    35    19    20 1   
    36    19    35 1   
    37    20    21 1   
    38    20    36 1   
    39    20    37 1   
    40    21    38 1   
    41    21    39 1   
    42    21    40 1   
@<TRIPOS>SUBSTRUCTURE
     1 5XK         1 TEMP              0 ****  ****    0 ROOT
