@<TRIPOS>MOLECULE
5XL
   33    35     1     0     0
SMALL
No Charge or Current Charge


@<TRIPOS>ATOM
      1 C4           2.3520     2.0010     0.1130 cc         1 5XL      -0.103000
      2 C5           1.0690     2.4750    -0.0420 cd         1 5XL      -0.208000
      3 C6          -1.0730     1.2600     0.1150 ca         1 5XL       0.074800
      4 C11         -1.6870    -0.0270     0.2670 ca         1 5XL      -0.182600
      5 C7          -1.8540     2.3560    -0.3190 ca         1 5XL      -0.154000
      6 C8          -3.2070     2.1950    -0.6370 ca         1 5XL      -0.048000
      7 C9          -3.8030     0.9360    -0.5130 ca         1 5XL      -0.145000
      8 C10         -3.0630    -0.1680    -0.0630 ca         1 5XL       0.195000
      9 C12         -0.8500    -1.2000     0.7720 c          1 5XL       0.587600
     10 C13          1.0220     0.3010     0.7140 cd         1 5XL       0.010600
     11 N1           0.2840     1.4380     0.4640 na         1 5XL       0.102200
     12 N2           0.4820    -0.9330     0.9450 ns         1 5XL      -0.386100
     13 C3           2.3380     0.6540     0.5790 cc         1 5XL      -0.194300
     14 Cl          -3.9490    -1.6930     0.0440 cl         1 5XL      -0.150000
     15 O           -1.2760    -2.3170     1.0140 o          1 5XL      -0.522000
     16 C2           3.5790    -0.1850     0.7530 c3         1 5XL       0.252100
     17 N            4.2230    -0.5450    -0.5320 n3         1 5XL      -0.711600
     18 C1           5.5400    -1.1870    -0.3370 c3         1 5XL       0.149600
     19 C            3.3430    -1.3290    -1.4300 c3         1 5XL       0.149600
     20 H1           3.2600     2.5410    -0.1450 ha         1 5XL       0.145000
     21 H2           0.7010     3.4160    -0.4280 h4         1 5XL       0.154000
     22 H3          -1.4280     3.3510    -0.4050 ha         1 5XL       0.131000
     23 H4          -3.7950     3.0460    -0.9740 ha         1 5XL       0.125000
     24 H5          -4.8540     0.8140    -0.7630 ha         1 5XL       0.138000
     25 H6           1.0600    -1.7240     1.2000 hn         1 5XL       0.343500
     26 H7           4.2830     0.3840     1.3740 h1         1 5XL       0.030700
     27 H8           3.3210    -1.0950     1.3130 h1         1 5XL       0.030700
     28 H10          5.4340    -2.1500     0.1810 h1         1 5XL       0.030533
     29 H11          6.0310    -1.3690    -1.3030 h1         1 5XL       0.030533
     30 H12          6.2010    -0.5460     0.2610 h1         1 5XL       0.030533
     31 H13          2.4230    -0.7790    -1.6630 h1         1 5XL       0.030533
     32 H14          3.8510    -1.5430    -2.3800 h1         1 5XL       0.030533
     33 H15          3.0650    -2.2860    -0.9670 h1         1 5XL       0.030533
@<TRIPOS>BOND
     1     1     2 2   
     2     1    13 1   
     3     1    20 1   
     4     2    11 1   
     5     2    21 1   
     6     3     4 ar  
     7     3     5 ar  
     8     3    11 1   
     9     4     8 ar  
    10     4     9 1   
    11     5     6 ar  
    12     5    22 1   
    13     6     7 ar  
    14     6    23 1   
    15     7     8 ar  
    16     7    24 1   
    17     8    14 1   
    18     9    12 1   
    19     9    15 2   
    20    10    11 1   
    21    10    12 1   
    22    10    13 2   
    23    12    25 1   
    24    13    16 1   
    25    16    17 1   
    26    16    26 1   
    27    16    27 1   
    28    17    18 1   
    29    17    19 1   
    30    18    28 1   
    31    18    29 1   
    32    18    30 1   
    33    19    31 1   
    34    19    32 1   
    35    19    33 1   
@<TRIPOS>SUBSTRUCTURE
     1 5XL         1 TEMP              0 ****  ****    0 ROOT
