@<TRIPOS>MOLECULE
5XL
   33    35     1     0     0
SMALL
abcg2


@<TRIPOS>ATOM
      1 C4           2.3420     1.9190    -0.0450 cc         1 5XL      -0.103000
      2 C5           1.0650     2.3370    -0.2530 cd         1 5XL      -0.208000
      3 C6          -1.1540     1.1980    -0.0380 ca         1 5XL       0.074800
      4 C11         -1.7840    -0.0190     0.2910 ca         1 5XL      -0.182600
      5 C7          -1.8920     2.3130    -0.4270 ca         1 5XL      -0.154000
      6 C8          -3.2650     2.2280    -0.4900 ca         1 5XL      -0.048000
      7 C9          -3.9200     1.0470    -0.1740 ca         1 5XL      -0.145000
      8 C10         -3.1850    -0.0590     0.2100 ca         1 5XL       0.195000
      9 C12         -0.9700    -1.1890     0.7000 c          1 5XL       0.587600
     10 C13          1.0000     0.2070     0.4060 cd         1 5XL       0.010600
     11 N1           0.2270     1.2710     0.0290 na         1 5XL       0.102200
     12 N2           0.3730    -0.9720     0.7190 ns         1 5XL      -0.386100
     13 C3           2.3210     0.5580     0.3830 cc         1 5XL      -0.194300
     14 CL          -4.1010    -1.4760     0.5740 cl         1 5XL      -0.150000
     15 O           -1.4230    -2.2770     1.0040 o          1 5XL      -0.522000
     16 C2           3.5000    -0.3020     0.6930 c3         1 5XL       0.252100
     17 N            4.3600    -0.4900    -0.4620 n3         1 5XL      -0.711600
     18 C1           5.5970    -1.1410    -0.0890 c3         1 5XL       0.149600
     19 C            3.6910    -1.2100    -1.5230 c3         1 5XL       0.149600
     20 H1           3.2260     2.5230    -0.1810 ha         1 5XL       0.145000
     21 H2           0.6850     3.2900    -0.5730 h4         1 5XL       0.154000
     22 H3          -1.4020     3.2400    -0.6830 ha         1 5XL       0.131000
     23 H4          -3.8410     3.0930    -0.7920 ha         1 5XL       0.125000
     24 H5          -4.9980     0.9890    -0.2270 ha         1 5XL       0.138000
     25 H6           0.9510    -1.7530     0.9960 hn         1 5XL       0.343500
     26 H7           4.0980     0.1680     1.4790 h1         1 5XL       0.030700
     27 H8           3.1640    -1.2700     1.1110 h1         1 5XL       0.030700
     28 H10          5.4560    -2.1640     0.2960 h1         1 5XL       0.030533
     29 H11          6.2610    -1.2020    -0.9520 h1         1 5XL       0.030533
     30 H12          6.1060    -0.5630     0.6840 h1         1 5XL       0.030533
     31 H13          2.8000    -0.6720    -1.8440 h1         1 5XL       0.030533
     32 H14          4.3540    -1.3020    -2.3850 h1         1 5XL       0.030533
     33 H15          3.3820    -2.2260    -1.2260 h1         1 5XL       0.030533
@<TRIPOS>BOND
     1     1     2 2   
     2     1    13 1   
     3     1    20 1   
     4     2    11 1   
     5     2    21 1   
     6     3     4 ar  
     7     3     5 ar  
     8     3    11 1   
     9     4     8 ar  
    10     4     9 1   
    11     5     6 ar  
    12     5    22 1   
    13     6     7 ar  
    14     6    23 1   
    15     7     8 ar  
    16     7    24 1   
    17     8    14 1   
    18     9    12 1   
    19     9    15 2   
    20    10    11 1   
    21    10    12 1   
    22    10    13 2   
    23    12    25 1   
    24    13    16 1   
    25    16    17 1   
    26    16    26 1   
    27    16    27 1   
    28    17    18 1   
    29    17    19 1   
    30    18    28 1   
    31    18    29 1   
    32    18    30 1   
    33    19    31 1   
    34    19    32 1   
    35    19    33 1   
@<TRIPOS>SUBSTRUCTURE
     1 5XL         1 TEMP              0 ****  ****    0 ROOT
