@<TRIPOS>MOLECULE
5XM
   42    45     1     0     0
SMALL
No Charge or Current Charge


@<TRIPOS>ATOM
      1 CAQ          3.4540     0.4810     0.9910 c6         1 5XM       0.181300
      2 CAR          4.2750    -0.7530     1.4430 c6         1 5XM      -0.075900
      3 CAS          5.3240    -1.1470     0.3800 c6         1 5XM      -0.074400
      4 CAT          4.6390    -1.3350    -0.9920 c6         1 5XM      -0.075900
      5 CAU          3.8140    -0.0820    -1.3760 c6         1 5XM       0.181300
      6 NAP          2.8030     0.2590    -0.3350 n3         1 5XM      -0.722600
      7 CAO          1.9270     1.3760    -0.7730 c3         1 5XM       0.204800
      8 CAN          0.6630     1.6430     0.0820 c5         1 5XM      -0.114000
      9 CAM         -0.1020     2.9460    -0.3710 c5         1 5XM      -0.100400
     10 CAL         -1.5770     2.5980    -0.0100 c5         1 5XM       0.217800
     11 NAG         -1.6490     1.1450     0.0280 na         1 5XM      -0.768400
     12 CAH         -0.3970     0.5740     0.0600 cc         1 5XM       0.681200
     13 NAI         -0.2710    -0.7310     0.1390 nd         1 5XM      -0.679100
     14 CAJ         -1.3450    -1.6050     0.1510 c          1 5XM       0.715100
     15 OAK         -1.1420    -2.8080     0.2110 o          1 5XM      -0.541100
     16 CAE         -2.7010    -1.0260     0.1000 ca         1 5XM      -0.228600
     17 CAD         -2.8020     0.3610     0.0450 ca         1 5XM       0.323000
     18 CAC         -4.0810     0.9540     0.0130 ca         1 5XM      -0.172000
     19 CAB         -5.2400     0.1590     0.0270 ca         1 5XM      -0.054000
     20 CAA         -5.1260    -1.2380     0.0770 ca         1 5XM      -0.155000
     21 CAF         -3.8570    -1.8360     0.1140 ca         1 5XM      -0.018000
     22 H1           2.7060     0.6830     1.7690 h1         1 5XM       0.025700
     23 H2           4.1190     1.3570     0.9450 h1         1 5XM       0.025700
     24 H3           4.7700    -0.5400     2.3990 hc         1 5XM       0.049950
     25 H4           3.5940    -1.5960     1.6230 hc         1 5XM       0.049950
     26 H5           6.0920    -0.3640     0.3080 hc         1 5XM       0.036700
     27 H6           5.8380    -2.0710     0.6780 hc         1 5XM       0.036700
     28 H7           5.3920    -1.5360    -1.7650 hc         1 5XM       0.049950
     29 H8           3.9780    -2.2120    -0.9610 hc         1 5XM       0.049950
     30 H9           4.5000     0.7650    -1.5300 h1         1 5XM       0.025700
     31 H10          3.3180    -0.2750    -2.3380 h1         1 5XM       0.025700
     32 H12          2.5170     2.3030    -0.8050 h1         1 5XM       0.036700
     33 H13          1.5850     1.1870    -1.8000 h1         1 5XM       0.036700
     34 H14          0.9850     1.7770     1.1170 hc         1 5XM       0.089700
     35 H15          0.2550     3.8560     0.1250 hc         1 5XM       0.063700
     36 H16         -0.0100     3.1030    -1.4520 hc         1 5XM       0.063700
     37 H17         -1.8440     3.0080     0.9740 h1         1 5XM       0.060200
     38 H18         -2.2710     3.0240    -0.7490 h1         1 5XM       0.060200
     39 H19         -4.1910     2.0330    -0.0220 ha         1 5XM       0.117000
     40 H20         -6.2230     0.6260     0.0010 ha         1 5XM       0.114000
     41 H21         -6.0200    -1.8580     0.0880 ha         1 5XM       0.120000
     42 H22         -3.7740    -2.9210     0.1570 ha         1 5XM       0.140000
@<TRIPOS>BOND
     1     1     2 1   
     2     1     6 1   
     3     1    22 1   
     4     1    23 1   
     5     2     3 1   
     6     2    24 1   
     7     2    25 1   
     8     3     4 1   
     9     3    26 1   
    10     3    27 1   
    11     4     5 1   
    12     4    28 1   
    13     4    29 1   
    14     5     6 1   
    15     5    30 1   
    16     5    31 1   
    17     6     7 1   
    18     7     8 1   
    19     7    32 1   
    20     7    33 1   
    21     8     9 1   
    22     8    12 1   
    23     8    34 1   
    24     9    10 1   
    25     9    35 1   
    26     9    36 1   
    27    10    11 1   
    28    10    37 1   
    29    10    38 1   
    30    11    12 1   
    31    11    17 1   
    32    12    13 2   
    33    13    14 1   
    34    14    15 2   
    35    14    16 1   
    36    16    17 ar  
    37    16    21 ar  
    38    17    18 ar  
    39    18    19 ar  
    40    18    39 1   
    41    19    20 ar  
    42    19    40 1   
    43    20    21 ar  
    44    20    41 1   
    45    21    42 1   
@<TRIPOS>SUBSTRUCTURE
     1 5XM         1 TEMP              0 ****  ****    0 ROOT
