@<TRIPOS>MOLECULE
5XM
   42    45     1     0     0
SMALL
abcg2


@<TRIPOS>ATOM
      1 CAQ          3.7250     0.8690     0.7720 c6         1 5XM       0.181300
      2 CAR          4.5100    -0.2450     1.4470 c6         1 5XM      -0.075900
      3 CAS          5.2230    -1.1020     0.4080 c6         1 5XM      -0.074400
      4 CAT          4.2240    -1.5920    -0.6330 c6         1 5XM      -0.075900
      5 CAU          3.4470    -0.4300    -1.2340 c6         1 5XM       0.181300
      6 NAP          2.7880     0.3390    -0.1980 n3         1 5XM      -0.722600
      7 CAO          1.9000     1.3570    -0.7100 c3         1 5XM       0.204800
      8 CAN          0.6710     1.5540     0.1730 c5         1 5XM      -0.114000
      9 CAM         -0.0830     2.8620    -0.0750 c5         1 5XM      -0.100400
     10 CAL         -1.5270     2.5480     0.3010 c5         1 5XM       0.217800
     11 NAG         -1.6030     1.1100     0.0630 na         1 5XM      -0.768400
     12 CAH         -0.3980     0.5180    -0.0340 cc         1 5XM       0.681200
     13 NAI         -0.1900    -0.7360    -0.2670 nd         1 5XM      -0.679100
     14 CAJ         -1.2640    -1.5770    -0.4220 c          1 5XM       0.715100
     15 OAK         -1.0980    -2.7600    -0.6810 o          1 5XM      -0.541100
     16 CAE         -2.6130    -1.0060    -0.2540 ca         1 5XM      -0.228600
     17 CAD         -2.7550     0.3640    -0.0050 ca         1 5XM       0.323000
     18 CAC         -4.0220     0.9290     0.1670 ca         1 5XM      -0.172000
     19 CAB         -5.1350     0.1170     0.0840 ca         1 5XM      -0.054000
     20 CAA         -5.0090    -1.2510    -0.1700 ca         1 5XM      -0.155000
     21 CAF         -3.7560    -1.8030    -0.3350 ca         1 5XM      -0.018000
     22 H1           3.1730     1.4400     1.5240 h1         1 5XM       0.025700
     23 H2           4.4300     1.5790     0.2990 h1         1 5XM       0.025700
     24 H3           5.2220     0.1900     2.1520 hc         1 5XM       0.049950
     25 H4           3.8210    -0.8660     2.0270 hc         1 5XM       0.049950
     26 H5           6.0010    -0.5070    -0.0820 hc         1 5XM       0.036700
     27 H6           5.7270    -1.9460     0.8840 hc         1 5XM       0.036700
     28 H7           4.7290    -2.1420    -1.4290 hc         1 5XM       0.049950
     29 H8           3.5160    -2.2810    -0.1630 hc         1 5XM       0.049950
     30 H9           4.1340     0.1930    -1.8370 h1         1 5XM       0.025700
     31 H10          2.6830    -0.8130    -1.9150 h1         1 5XM       0.025700
     32 H12          2.4090     2.3290    -0.8180 h1         1 5XM       0.036700
     33 H13          1.5660     1.0810    -1.7130 h1         1 5XM       0.036700
     34 H14          0.9710     1.5010     1.2270 hc         1 5XM       0.089700
     35 H15          0.3190     3.6930     0.4990 hc         1 5XM       0.063700
     36 H16         -0.0270     3.1280    -1.1340 hc         1 5XM       0.063700
     37 H17         -1.7470     2.7630     1.3480 h1         1 5XM       0.060200
     38 H18         -2.2490     3.0760    -0.3200 h1         1 5XM       0.060200
     39 H19         -4.1360     1.9860     0.3660 ha         1 5XM       0.117000
     40 H20         -6.1160     0.5510     0.2190 ha         1 5XM       0.114000
     41 H21         -5.8910    -1.8730    -0.2350 ha         1 5XM       0.120000
     42 H22         -3.6470    -2.8620    -0.5280 ha         1 5XM       0.140000
@<TRIPOS>BOND
     1     1     2 1   
     2     1     6 1   
     3     1    22 1   
     4     1    23 1   
     5     2     3 1   
     6     2    24 1   
     7     2    25 1   
     8     3     4 1   
     9     3    26 1   
    10     3    27 1   
    11     4     5 1   
    12     4    28 1   
    13     4    29 1   
    14     5     6 1   
    15     5    30 1   
    16     5    31 1   
    17     6     7 1   
    18     7     8 1   
    19     7    32 1   
    20     7    33 1   
    21     8     9 1   
    22     8    12 1   
    23     8    34 1   
    24     9    10 1   
    25     9    35 1   
    26     9    36 1   
    27    10    11 1   
    28    10    37 1   
    29    10    38 1   
    30    11    12 1   
    31    11    17 1   
    32    12    13 2   
    33    13    14 1   
    34    14    15 2   
    35    14    16 1   
    36    16    17 ar  
    37    16    21 ar  
    38    17    18 ar  
    39    18    19 ar  
    40    18    39 1   
    41    19    20 ar  
    42    19    40 1   
    43    20    21 ar  
    44    20    41 1   
    45    21    42 1   
@<TRIPOS>SUBSTRUCTURE
     1 5XM         1 TEMP              0 ****  ****    0 ROOT
