@<TRIPOS>MOLECULE
5XN
   38    40     1     0     0
SMALL
No Charge or Current Charge


@<TRIPOS>ATOM
      1 C1          -2.9750    -1.1690     0.3680 cc         1 5XN      -0.246400
      2 C2          -1.8320    -1.6230    -0.2580 cd         1 5XN       0.029300
      3 O3          -1.9310    -2.9460    -0.6090 os         1 5XN      -0.083200
      4 N4          -3.2210    -3.3490    -0.1060 ns         1 5XN      -0.353400
      5 C5          -3.9070    -2.2840     0.4150 c          1 5XN       0.536200
      6 C6          -0.6500    -0.8430    -0.5670 cd         1 5XN       0.548800
      7 N7          -0.4820     0.5040    -0.3030 nd         1 5XN      -0.426000
      8 N8           0.6960     0.8460    -0.7350 nc         1 5XN      -0.147800
      9 N9           1.2200    -0.2960    -1.2520 na         1 5XN       0.260600
     10 N10          0.3990    -1.3730    -1.1680 nc         1 5XN      -0.464800
     11 C11          2.5640    -0.3550    -1.8530 c3         1 5XN       0.141900
     12 C12          5.8140    -0.3970     1.0440 ca         1 5XN      -0.076000
     13 C13          5.8210     0.5300    -0.0110 ca         1 5XN       0.115000
     14 C14          4.7720     0.5440    -0.9460 ca         1 5XN      -0.076000
     15 C15          3.7040    -0.3710    -0.8320 ca         1 5XN      -0.134300
     16 C16          3.7060    -1.3030     0.2280 ca         1 5XN      -0.073000
     17 C17          4.7560    -1.3140     1.1620 ca         1 5XN      -0.103000
     18 O23         -5.0630    -2.2990     0.8060 o          1 5XN      -0.487000
     19 C24         -3.3760     0.1750     0.9470 c3         1 5XN      -0.010200
     20 C25         -4.1030     1.0900    -0.0700 c3         1 5XN      -0.058700
     21 C26         -4.5170     2.4810     0.5480 c          1 5XN       0.720000
     22 O27         -4.6410     3.4190    -0.2290 o          1 5XN      -0.654000
     23 O28         -4.6590     2.5780     1.7580 o          1 5XN      -0.654000
     24 N29         -3.2790     1.2260    -1.3610 nz         1 5XN      -0.994000
     25 H1          -3.7030    -4.0830    -0.6140 hn         1 5XN       0.362500
     26 H111         2.6250    -1.2570    -2.4730 h1         1 5XN       0.091700
     27 H112         2.6710     0.5070    -2.5220 h1         1 5XN       0.091700
     28 H14          4.7930     1.2680    -1.7570 ha         1 5XN       0.137000
     29 H16          2.8950    -2.0220     0.3290 ha         1 5XN       0.126000
     30 H17          4.7500    -2.0350     1.9770 ha         1 5XN       0.128000
     31 H241        -4.0370     0.0130     1.8090 hc         1 5XN       0.101200
     32 H242        -2.5040     0.6980     1.3560 hc         1 5XN       0.101200
     33 H25         -5.0500     0.6110    -0.3350 hx         1 5XN       0.089700
     34 H293        -2.2980     1.5000    -1.1800 hn         1 5XN       0.502000
     35 H291        -3.2390     0.3630    -1.9230 hn         1 5XN       0.502000
     36 H292        -3.6560     1.9590    -1.9850 hn         1 5XN       0.502000
     37 Cl1          7.1450     1.6780    -0.1610 cl         1 5XN      -0.182000
     38 H12          6.6270    -0.4040     1.7660 ha         1 5XN       0.138000
@<TRIPOS>BOND
     1     1     2 2   
     2     1     5 1   
     3     1    19 1   
     4     2     3 1   
     5     2     6 1   
     6     3     4 1   
     7     4     5 1   
     8     4    25 1   
     9     5    18 2   
    10     6     7 1   
    11     6    10 2   
    12     7     8 2   
    13     8     9 1   
    14     9    10 1   
    15     9    11 1   
    16    11    15 1   
    17    11    26 1   
    18    11    27 1   
    19    12    13 ar  
    20    12    17 ar  
    21    12    38 1   
    22    13    14 ar  
    23    13    37 1   
    24    14    15 ar  
    25    14    28 1   
    26    15    16 ar  
    27    16    17 ar  
    28    16    29 1   
    29    17    30 1   
    30    19    20 1   
    31    19    31 1   
    32    19    32 1   
    33    20    21 1   
    34    20    24 1   
    35    20    33 1   
    36    21    22 1   
    37    21    23 1   
    38    24    34 1   
    39    24    35 1   
    40    24    36 1   
@<TRIPOS>SUBSTRUCTURE
     1 5XN         1 TEMP              0 ****  ****    0 ROOT
