@<TRIPOS>MOLECULE
5XN
   38    40     1     0     0
SMALL
bcc


@<TRIPOS>ATOM
      1 C1          -2.6680    -0.9710     0.4920 cc         1 5XN      -0.246400
      2 C2          -1.6600    -1.4980    -0.2240 cd         1 5XN       0.029300
      3 O3          -1.7330    -2.8330    -0.3360 os         1 5XN      -0.083200
      4 N4          -2.8200    -3.1990     0.4100 ns         1 5XN      -0.420400
      5 C5          -3.5090    -2.1050     0.8620 c          1 5XN       0.678700
      6 C6          -0.5360    -0.8680    -0.8790 cd         1 5XN       0.548800
      7 N7          -0.5690     0.3990    -1.3180 nd         1 5XN      -0.426000
      8 N8           0.5880     0.6300    -1.8420 nc         1 5XN      -0.147800
      9 N9           1.2700    -0.4700    -1.7220 na         1 5XN       0.289900
     10 N10          0.6240    -1.4370    -1.1290 nc         1 5XN      -0.464800
     11 C11          2.6600    -0.5900    -2.1430 c3         1 5XN       0.112600
     12 C12          5.2160    -0.4660     1.2990 ca         1 5XN      -0.094000
     13 C13          4.7980     0.7030     0.6810 ca         1 5XN       0.023400
     14 C14          3.9830     0.6760    -0.4380 ca         1 5XN      -0.094000
     15 C15          3.5770    -0.5510    -0.9530 ca         1 5XN      -0.134300
     16 C16          3.9900    -1.7300    -0.3450 ca         1 5XN      -0.091000
     17 C17          4.8060    -1.6840     0.7760 ca         1 5XN      -0.121000
     18 O23         -4.5660    -2.1330     1.4660 o          1 5XN      -0.562500
     19 C24         -2.9470     0.4330     0.9010 c3         1 5XN      -0.010200
     20 C25         -3.9400     1.1530    -0.0050 c3         1 5XN      -0.030500
     21 C26         -4.2890     2.5850     0.4950 c          1 5XN       0.930600
     22 O27         -4.2900     3.4670    -0.3870 o          1 5XN      -0.759300
     23 O28         -4.5500     2.6890     1.6970 o          1 5XN      -0.759300
     24 N29         -3.4280     1.2800    -1.3960 nz         1 5XN      -0.856600
     25 H1          -3.2080    -4.0890     0.1280 hn         1 5XN       0.362500
     26 H111         2.7500    -1.5240    -2.6930 h1         1 5XN       0.091700
     27 H112         2.8450     0.2330    -2.8310 h1         1 5XN       0.091700
     28 H14          3.6710     1.5990    -0.9090 ha         1 5XN       0.155000
     29 H16          3.6790    -2.6850    -0.7480 ha         1 5XN       0.144000
     30 H17          5.1270    -2.6020     1.2490 ha         1 5XN       0.146000
     31 H241        -3.3780     0.4220     1.9010 hc         1 5XN       0.101200
     32 H242        -2.0200     1.0050     0.9660 hc         1 5XN       0.101200
     33 H25         -4.8680     0.5800    -0.0620 hx         1 5XN       0.089700
     34 H293        -2.4020     1.2040    -1.4610 hn         1 5XN       0.446800
     35 H291        -3.8330     0.6090    -2.0440 hn         1 5XN       0.446800
     36 H292        -3.6950     2.2370    -1.6850 hn         1 5XN       0.446800
     37 CL1          5.3070     2.2310     1.3190 cl         1 5XN      -0.090400
     38 H12          5.8540    -0.4290     2.1710 ha         1 5XN       0.156000
@<TRIPOS>BOND
     1     1     2 2   
     2     1     5 1   
     3     1    19 1   
     4     2     3 1   
     5     2     6 1   
     6     3     4 1   
     7     4     5 1   
     8     4    25 1   
     9     5    18 2   
    10     6     7 1   
    11     6    10 2   
    12     7     8 2   
    13     8     9 1   
    14     9    10 1   
    15     9    11 1   
    16    11    15 1   
    17    11    26 1   
    18    11    27 1   
    19    12    13 ar  
    20    12    17 ar  
    21    12    38 1   
    22    13    14 ar  
    23    13    37 1   
    24    14    15 ar  
    25    14    28 1   
    26    15    16 ar  
    27    16    17 ar  
    28    16    29 1   
    29    17    30 1   
    30    19    20 1   
    31    19    31 1   
    32    19    32 1   
    33    20    21 1   
    34    20    24 1   
    35    20    33 1   
    36    21    22 1   
    37    21    23 1   
    38    24    34 1   
    39    24    35 1   
    40    24    36 1   
@<TRIPOS>SUBSTRUCTURE
     1 5XN         1 TEMP              0 ****  ****    0 ROOT
