@<TRIPOS>MOLECULE
5XO
   40    42     1     0     0
SMALL
No Charge or Current Charge


@<TRIPOS>ATOM
      1 C1          -2.2990    -1.3140     0.0050 cc         1 5XO      -0.141400
      2 C2          -1.1030    -1.3730    -0.6810 cd         1 5XO      -0.006700
      3 O3          -0.9700    -2.5480    -1.3810 os         1 5XO      -0.115200
      4 N4          -2.1540    -3.2960    -1.0440 ns         1 5XO      -0.360400
      5 C5          -3.0140    -2.5490    -0.2810 c          1 5XO       0.531200
      6 C6          -0.0740    -0.3520    -0.7160 cd         1 5XO       0.580800
      7 N7          -0.1030     0.8580    -0.0500 nd         1 5XO      -0.325000
      8 N8           1.0000     1.4900    -0.3260 nc         1 5XO      -0.190800
      9 N9           1.6790     0.6530    -1.1530 na         1 5XO       0.234600
     10 N10          1.0350    -0.5110    -1.4190 nc         1 5XO      -0.514800
     11 C11          3.0050     0.9860    -1.7080 c3         1 5XO       0.145900
     12 C12          6.2840     0.6050     1.1240 ca         1 5XO      -0.098000
     13 C13          5.3530    -0.4410     0.9930 ca         1 5XO      -0.081300
     14 C14          4.2920    -0.3150     0.0760 ca         1 5XO      -0.076000
     15 C15          4.1560     0.8490    -0.7100 ca         1 5XO      -0.120300
     16 C16          5.1000     1.8870    -0.5740 ca         1 5XO      -0.083000
     17 C17          6.1590     1.7650     0.3410 ca         1 5XO      -0.112000
     18 O23         -4.1410    -2.8820     0.0550 o          1 5XO      -0.514000
     19 C24         -2.9490    -0.2600     0.8810 c3         1 5XO      -0.001200
     20 C25         -3.9850     0.6270     0.1380 c3         1 5XO       0.018500
     21 C26         -4.7200     1.5740     1.1720 c          1 5XO       0.696000
     22 O27         -4.1180     2.5540     1.5940 o          1 5XO      -0.731000
     23 O28         -5.8950     1.3530     1.4270 o          1 5XO      -0.731000
     24 N29         -3.3650     1.3030    -1.0640 n8         1 5XO      -1.009200
     25 H4          -2.5030    -3.9440    -1.7430 hn         1 5XO       0.333500
     26 H111         3.1960     0.3280    -2.5640 h1         1 5XO       0.078700
     27 H112         2.9620     2.0130    -2.0900 h1         1 5XO       0.078700
     28 H14          3.5740    -1.1250    -0.0250 ha         1 5XO       0.118000
     29 H16          5.0140     2.7900    -1.1750 ha         1 5XO       0.125000
     30 H17          6.8820     2.5700     0.4440 ha         1 5XO       0.115000
     31 H241        -3.4650    -0.7600     1.7110 hc         1 5XO       0.070200
     32 H242        -2.1990     0.3760     1.3630 hc         1 5XO       0.070200
     33 H25         -4.7600    -0.0480    -0.2530 h1         1 5XO       0.048700
     34 H292        -4.0770     1.8820    -1.5270 hn         1 5XO       0.388500
     35 H291        -2.6840     1.9960    -0.7280 hn         1 5XO       0.388500
     36 H1           4.8930    -1.6140     2.7580 hc         1 5XO       0.041700
     37 H3           5.1380    -2.5840     1.2950 hc         1 5XO       0.041700
     38 H2           6.5280    -1.8790     2.1290 hc         1 5XO       0.041700
     39 C18          5.4860    -1.6980     1.8390 c3         1 5XO      -0.044800
     40 H12          7.1060     0.5210     1.8320 ha         1 5XO       0.109000
@<TRIPOS>BOND
     1     1     2 2   
     2     1     5 1   
     3     1    19 1   
     4     2     3 1   
     5     2     6 1   
     6     3     4 1   
     7     4     5 1   
     8     4    25 1   
     9     5    18 2   
    10     6     7 1   
    11     6    10 2   
    12     7     8 2   
    13     8     9 1   
    14     9    10 1   
    15     9    11 1   
    16    11    15 1   
    17    11    26 1   
    18    11    27 1   
    19    12    13 ar  
    20    12    17 ar  
    21    12    40 1   
    22    13    14 ar  
    23    13    39 1   
    24    14    15 ar  
    25    14    28 1   
    26    15    16 ar  
    27    16    17 ar  
    28    16    29 1   
    29    17    30 1   
    30    19    20 1   
    31    19    31 1   
    32    19    32 1   
    33    20    21 1   
    34    20    24 1   
    35    20    33 1   
    36    21    22 1   
    37    21    23 1   
    38    24    34 1   
    39    24    35 1   
    40    36    39 1   
    41    37    39 1   
    42    38    39 1   
@<TRIPOS>SUBSTRUCTURE
     1 5XO         1 TEMP              0 ****  ****    0 ROOT
