@<TRIPOS>MOLECULE
5XO
   40    42     1     0     0
SMALL
abcg2


@<TRIPOS>ATOM
      1 C1          -2.2220    -0.9800     0.3610 cc         1 5XO      -0.141400
      2 C2          -1.0430    -1.0790    -0.2780 cd         1 5XO      -0.006700
      3 O3          -0.7300    -2.3460    -0.6150 os         1 5XO      -0.115200
      4 N4          -1.7340    -3.1180    -0.0990 ns         1 5XO      -0.360400
      5 C5          -2.7390    -2.3410     0.4190 c          1 5XO       0.531200
      6 C6          -0.0440    -0.0990    -0.6420 cd         1 5XO       0.580800
      7 N7          -0.2030     1.2300    -0.5490 nd         1 5XO      -0.325000
      8 N8           0.9050     1.7490    -0.9610 nc         1 5XO      -0.190800
      9 N9           1.6840     0.7590    -1.2900 na         1 5XO       0.234600
     10 N10          1.1490    -0.4160    -1.1070 nc         1 5XO      -0.514800
     11 C11          3.0610     0.9480    -1.7240 c3         1 5XO       0.145900
     12 C12          5.7450     0.2930     1.5410 ca         1 5XO      -0.098000
     13 C13          5.5030    -0.7450     0.6440 ca         1 5XO      -0.081300
     14 C14          4.6320    -0.5080    -0.4170 ca         1 5XO      -0.076000
     15 C15          4.0160     0.7260    -0.5830 ca         1 5XO      -0.120300
     16 C16          4.2660     1.7490     0.3240 ca         1 5XO      -0.083000
     17 C17          5.1330     1.5290     1.3840 ca         1 5XO      -0.112000
     18 O23         -3.7990    -2.7650     0.8510 o          1 5XO      -0.514000
     19 C24         -2.9590     0.2010     0.8780 c3         1 5XO      -0.001200
     20 C25         -4.0330     0.6980    -0.1000 c3         1 5XO       0.018500
     21 C26         -4.8600     1.8390     0.5520 c          1 5XO       0.696000
     22 O27         -5.0600     2.8630    -0.1300 o          1 5XO      -0.731000
     23 O28         -5.2820     1.6210     1.7060 o          1 5XO      -0.731000
     24 N29         -3.4230     1.0070    -1.3800 n8         1 5XO      -1.009200
     25 H4          -1.8580    -3.9850    -0.6060 hn         1 5XO       0.333500
     26 H111         3.2390     0.2530    -2.5430 h1         1 5XO       0.078700
     27 H112         3.1240     1.9610    -2.1150 h1         1 5XO       0.078700
     28 H14          4.4360    -1.3010    -1.1310 ha         1 5XO       0.118000
     29 H16          3.7940     2.7160     0.2010 ha         1 5XO       0.125000
     30 H17          5.3390     2.3260     2.0870 ha         1 5XO       0.115000
     31 H241        -3.4390    -0.0650     1.8190 hc         1 5XO       0.070200
     32 H242        -2.2590     1.0120     1.0900 hc         1 5XO       0.070200
     33 H25         -4.7360    -0.1310    -0.2620 h1         1 5XO       0.048700
     34 H292        -4.1260     1.4360    -1.9700 hn         1 5XO       0.388500
     35 H291        -2.7280     1.7320    -1.2400 hn         1 5XO       0.388500
     36 H1           5.6220    -2.6700     1.5880 hc         1 5XO       0.041700
     37 H3           6.1380    -2.6680    -0.0920 hc         1 5XO       0.041700
     38 H2           7.1830    -1.9920     1.1580 hc         1 5XO       0.041700
     39 C18          6.1480    -2.0870     0.8290 c3         1 5XO      -0.044800
     40 H12          6.4260     0.1350     2.3690 ha         1 5XO       0.109000
@<TRIPOS>BOND
     1     1     2 2   
     2     1     5 1   
     3     1    19 1   
     4     2     3 1   
     5     2     6 1   
     6     3     4 1   
     7     4     5 1   
     8     4    25 1   
     9     5    18 2   
    10     6     7 1   
    11     6    10 2   
    12     7     8 2   
    13     8     9 1   
    14     9    10 1   
    15     9    11 1   
    16    11    15 1   
    17    11    26 1   
    18    11    27 1   
    19    12    13 ar  
    20    12    17 ar  
    21    12    40 1   
    22    13    14 ar  
    23    13    39 1   
    24    14    15 ar  
    25    14    28 1   
    26    15    16 ar  
    27    16    17 ar  
    28    16    29 1   
    29    17    30 1   
    30    19    20 1   
    31    19    31 1   
    32    19    32 1   
    33    20    21 1   
    34    20    24 1   
    35    20    33 1   
    36    21    22 1   
    37    21    23 1   
    38    24    34 1   
    39    24    35 1   
    40    36    39 1   
    41    37    39 1   
    42    38    39 1   
@<TRIPOS>SUBSTRUCTURE
     1 5XO         1 TEMP              0 ****  ****    0 ROOT
