@<TRIPOS>MOLECULE
5XP
   42    44     1     0     0
SMALL
bcc


@<TRIPOS>ATOM
      1 C1          -2.4990     1.1470    -0.0910 cc         1 5XP      -0.285900
      2 C2          -1.3090     1.0780     0.5510 cd         1 5XP       0.249700
      3 O3          -1.0400     2.2280     1.1790 os         1 5XP      -0.118100
      4 N4          -2.0630     3.1070     0.9720 nd         1 5XP      -0.413300
      5 C5          -2.9190     2.4710     0.2280 cc         1 5XP       0.557600
      6 C6          -0.3190     0.0330     0.6740 cd         1 5XP       0.478000
      7 N7          -0.4150    -1.1800     0.1060 nd         1 5XP      -0.333000
      8 N8           0.6500    -1.8210     0.4510 nc         1 5XP      -0.187800
      9 N9           1.3460    -1.0160     1.2010 na         1 5XP       0.263900
     10 N10          0.7970     0.1550     1.3690 nc         1 5XP      -0.511800
     11 C11          2.6610    -1.3700     1.7190 c3         1 5XP       0.117600
     12 C12          5.6660    -0.5830    -1.2270 ca         1 5XP      -0.090000
     13 C13          5.2260     0.4530    -0.4060 ca         1 5XP      -0.094300
     14 C14          4.2540     0.1770     0.5490 ca         1 5XP      -0.097000
     15 C15          3.7330    -1.1040     0.6980 ca         1 5XP      -0.127300
     16 C16          4.1850    -2.1280    -0.1240 ca         1 5XP      -0.094000
     17 C17          5.1520    -1.8630    -1.0850 ca         1 5XP      -0.141000
     18 O23         -4.0400     3.0840    -0.1340 oh         1 5XP      -0.599300
     19 C24         -3.2680     0.1430    -0.8730 c3         1 5XP      -0.003100
     20 C25         -4.2620    -0.6400    -0.0020 c3         1 5XP       0.018500
     21 C26         -5.1570    -1.5350    -0.9020 c          1 5XP       0.905600
     22 O27         -5.7320    -0.9540    -1.8450 o          1 5XP      -0.835800
     23 O28         -5.2440    -2.7410    -0.6060 o          1 5XP      -0.835800
     24 N29         -3.5500    -1.3130     1.0660 n8         1 5XP      -0.890800
     25 N1           6.0820     2.2070    -1.8950 n8         1 5XP      -0.891800
     26 H112         2.8070    -0.7840     2.6240 h1         1 5XP       0.079700
     27 H111         2.6220    -2.4210     1.9950 h1         1 5XP       0.079700
     28 H12          6.4150    -0.3830    -1.9820 ha         1 5XP       0.146000
     29 H14          3.8960     0.9770     1.1890 ha         1 5XP       0.139000
     30 H16          3.7860    -3.1300    -0.0160 ha         1 5XP       0.139000
     31 H17          5.5060    -2.6600    -1.7260 ha         1 5XP       0.132000
     32 H242        -3.8160     0.6380    -1.6770 hc         1 5XP       0.063700
     33 H241        -2.5820    -0.5520    -1.3600 hc         1 5XP       0.063700
     34 H25         -4.9350     0.0900     0.4690 h1         1 5XP       0.033700
     35 H291        -4.2140    -1.8640     1.5950 hn         1 5XP       0.334800
     36 H292        -2.9180    -1.9920     0.6580 hn         1 5XP       0.334800
     37 H1           5.1520     2.5400     0.0130 h1         1 5XP       0.034700
     38 H26          6.7590     1.8560     0.0280 h1         1 5XP       0.034700
     39 H2           5.2090     2.3620    -2.3820 hn         1 5XP       0.342800
     40 H4           6.5740     3.0900    -1.9130 hn         1 5XP       0.342800
     41 H3          -4.5530     2.5330    -0.7360 ho         1 5XP       0.459000
     42 C39          5.8110     1.8390    -0.5170 c3         1 5XP       0.198100
@<TRIPOS>BOND
     1     1     2 2   
     2     1     5 1   
     3     1    19 1   
     4     2     3 1   
     5     2     6 1   
     6     3     4 1   
     7     4     5 2   
     8     5    18 1   
     9     6     7 1   
    10     6    10 2   
    11     7     8 2   
    12     8     9 1   
    13     9    10 1   
    14     9    11 1   
    15    11    15 1   
    16    11    26 1   
    17    11    27 1   
    18    12    13 ar  
    19    12    17 ar  
    20    12    28 1   
    21    13    14 ar  
    22    13    42 1   
    23    14    15 ar  
    24    14    29 1   
    25    15    16 ar  
    26    16    17 ar  
    27    16    30 1   
    28    17    31 1   
    29    18    41 1   
    30    19    20 1   
    31    19    32 1   
    32    19    33 1   
    33    20    21 1   
    34    20    24 1   
    35    20    34 1   
    36    21    22 1   
    37    21    23 1   
    38    24    35 1   
    39    24    36 1   
    40    25    39 1   
    41    25    40 1   
    42    25    42 1   
    43    37    42 1   
    44    38    42 1   
@<TRIPOS>SUBSTRUCTURE
     1 5XP         1 TEMP              0 ****  ****    0 ROOT
