@<TRIPOS>MOLECULE
5XP
   42    44     1     0     0
SMALL
No Charge or Current Charge


@<TRIPOS>ATOM
      1 C1          -2.4550     1.3420     0.3270 cc         1 5XP      -0.155300
      2 C2          -1.2940     1.1910     1.0430 cd         1 5XP       0.140000
      3 O3          -1.1510     2.1930     1.9720 os         1 5XP      -0.073700
      4 N4          -2.2890     3.0610     1.8720 nd         1 5XP      -0.413300
      5 C5          -2.9980     2.5100     0.9100 cc         1 5XP       0.492300
      6 C6          -0.3030     0.1410     0.9030 cd         1 5XP       0.478000
      7 N7          -0.3460    -0.9080     0.0050 nd         1 5XP      -0.333000
      8 N8           0.7210    -1.6310     0.1830 nc         1 5XP      -0.187800
      9 N9           1.3960    -1.0100     1.1850 na         1 5XP       0.234600
     10 N10          0.7820     0.1030     1.6600 nc         1 5XP      -0.511800
     11 C11          2.6810    -1.5080     1.7080 c3         1 5XP       0.146900
     12 C12          6.1070    -0.7300    -0.8590 ca         1 5XP      -0.072000
     13 C13          5.2040     0.3110    -0.5710 ca         1 5XP      -0.094300
     14 C14          4.0950     0.0550     0.2600 ca         1 5XP      -0.079000
     15 C15          3.8820    -1.2310     0.8010 ca         1 5XP      -0.127300
     16 C16          4.7970    -2.2620     0.5090 ca         1 5XP      -0.076000
     17 C17          5.9040    -2.0110    -0.3200 ca         1 5XP      -0.123000
     18 O23         -4.1650     3.0420     0.5140 oh         1 5XP      -0.638300
     19 C24         -3.0860     0.5370    -0.7970 c3         1 5XP      -0.003100
     20 C25         -4.2050    -0.4310    -0.3260 c3         1 5XP       0.018500
     21 C26         -4.8620    -1.1420    -1.5810 c          1 5XP       0.695000
     22 O27         -5.9120    -0.6890    -2.0140 o          1 5XP      -0.730500
     23 O28         -4.3550    -2.1750    -2.0000 o          1 5XP      -0.730500
     24 N29         -3.7080    -1.3360     0.7750 n8         1 5XP      -1.001200
     25 N1           4.9610     1.7950    -2.5400 n8         1 5XP      -1.002200
     26 H112         2.8590    -1.0440     2.6860 h1         1 5XP       0.079700
     27 H111         2.5810    -2.5870     1.8740 h1         1 5XP       0.079700
     28 H12          6.9660    -0.5440    -1.5010 ha         1 5XP       0.128000
     29 H14          3.4000     0.8610     0.4880 ha         1 5XP       0.121000
     30 H16          4.6530    -3.2590     0.9210 ha         1 5XP       0.121000
     31 H17          6.6060    -2.8120    -0.5440 ha         1 5XP       0.114000
     32 H242        -3.5090     1.2210    -1.5430 hc         1 5XP       0.063700
     33 H241        -2.3290    -0.0290    -1.3500 hc         1 5XP       0.063700
     34 H25         -4.9980     0.1810     0.1240 h1         1 5XP       0.033700
     35 H291        -4.4700    -1.9620     1.0630 hn         1 5XP       0.390000
     36 H292        -3.0190    -1.9830     0.3710 hn         1 5XP       0.390000
     37 H1           4.8960     2.4480    -0.5410 h1         1 5XP       0.034700
     38 H26          6.5030     1.9460    -1.1150 h1         1 5XP       0.034700
     39 H2           3.9500     1.6220    -2.5550 hn         1 5XP       0.398000
     40 H4           5.0470     2.7690    -2.8550 hn         1 5XP       0.398000
     41 H3          -4.5140     2.4270    -0.1610 ho         1 5XP       0.498000
     42 C39          5.4310     1.7030    -1.1460 c3         1 5XP       0.198100
@<TRIPOS>BOND
     1     1     2 2   
     2     1     5 1   
     3     1    19 1   
     4     2     3 1   
     5     2     6 1   
     6     3     4 1   
     7     4     5 2   
     8     5    18 1   
     9     6     7 1   
    10     6    10 2   
    11     7     8 2   
    12     8     9 1   
    13     9    10 1   
    14     9    11 1   
    15    11    15 1   
    16    11    26 1   
    17    11    27 1   
    18    12    13 ar  
    19    12    17 ar  
    20    12    28 1   
    21    13    14 ar  
    22    13    42 1   
    23    14    15 ar  
    24    14    29 1   
    25    15    16 ar  
    26    16    17 ar  
    27    16    30 1   
    28    17    31 1   
    29    18    41 1   
    30    19    20 1   
    31    19    32 1   
    32    19    33 1   
    33    20    21 1   
    34    20    24 1   
    35    20    34 1   
    36    21    22 1   
    37    21    23 1   
    38    24    35 1   
    39    24    36 1   
    40    25    39 1   
    41    25    40 1   
    42    25    42 1   
    43    37    42 1   
    44    38    42 1   
@<TRIPOS>SUBSTRUCTURE
     1 5XP         1 TEMP              0 ****  ****    0 ROOT
