@<TRIPOS>MOLECULE
5XQ
   40    42     1     0     0
SMALL
abcg2


@<TRIPOS>ATOM
      1 C10         46.6150    63.3680    45.3340 cc         1 5XQ      -0.267000
      2 C11         47.8330    65.2040    44.0860 cd         1 5XQ      -0.313500
      3 C12         48.9920    67.1580    43.2320 cd         1 5XQ       0.520300
      4 C13         48.2250    66.1180    45.0330 cc         1 5XQ       0.337300
      5 C14         48.0060    66.0160    46.5070 c3         1 5XQ      -0.123400
      6 C15         49.7820    68.2070    41.1720 c          1 5XQ       0.600100
      7 C01         44.7220    57.8510    40.4250 c3         1 5XQ       0.156900
      8 C02         45.7800    59.9990    40.2710 ca         1 5XQ       0.079100
      9 C03         45.9740    59.8930    38.9020 ca         1 5XQ      -0.163000
     10 C04         46.5970    60.9290    38.2030 ca         1 5XQ      -0.105000
     11 C05         47.0200    62.0620    38.8780 ca         1 5XQ      -0.111000
     12 C06         46.8290    62.1790    40.2540 ca         1 5XQ      -0.107000
     13 C07         46.2090    61.1540    40.9650 ca         1 5XQ       0.282000
     14 C08         46.3010    62.1030    43.2630 cc         1 5XQ       0.742300
     15 N02         46.9430    63.2140    43.0400 nd         1 5XQ      -0.745000
     16 C09         47.1310    63.9440    44.2060 cd         1 5XQ       0.426500
     17 S01         45.8640    61.8560    44.9500 ss         1 5XQ      -0.117400
     18 S           48.3100    65.7490    42.4930 ss         1 5XQ       0.121600
     19 N03         48.8800    67.2190    44.5320 nc         1 5XQ      -0.717000
     20 N           49.6210    68.1660    42.5290 ns         1 5XQ      -0.468400
     21 C           50.4980    69.4130    40.6290 c3         1 5XQ      -0.168100
     22 O           49.3630    67.3050    40.4550 o          1 5XQ      -0.578100
     23 H1          46.6210    63.7260    46.3470 h4         1 5XQ       0.162000
     24 H2          48.4750    66.8620    47.0080 hc         1 5XQ       0.051033
     25 H3          46.9410    66.0160    46.7530 hc         1 5XQ       0.051033
     26 H4          48.4310    65.0930    46.9080 hc         1 5XQ       0.051033
     27 H5          44.2930    57.2500    41.2220 h1         1 5XQ       0.043033
     28 H6          43.9580    58.0730    39.6760 h1         1 5XQ       0.043033
     29 H7          45.5480    57.3100    39.9580 h1         1 5XQ       0.043033
     30 H8          45.6450    59.0090    38.3750 ha         1 5XQ       0.116000
     31 H9          46.7430    60.8360    37.1350 ha         1 5XQ       0.114000
     32 H10         47.5040    62.8690    38.3420 ha         1 5XQ       0.121000
     33 H11         47.1580    63.0580    40.7820 ha         1 5XQ       0.156000
     34 H12         45.4800    60.3460    42.6810 hn         1 5XQ       0.523000
     35 H13         49.9770    68.9250    43.0940 hn         1 5XQ       0.338500
     36 H14         49.8380    69.9180    39.9220 hc         1 5XQ       0.068700
     37 H15         50.8010    70.1140    41.4040 hc         1 5XQ       0.068700
     38 H16         51.3790    69.0760    40.0800 hc         1 5XQ       0.068700
     39 N01         45.9620    61.1650    42.3410 nu         1 5XQ      -0.922900
     40 O01         45.1860    59.0490    41.0470 os         1 5XQ      -0.378100
@<TRIPOS>BOND
     1     1    16 2   
     2     1    17 1   
     3     1    23 1   
     4     2     4 2   
     5     2    16 1   
     6     2    18 1   
     7     3    18 1   
     8     3    19 2   
     9     3    20 1   
    10     4     5 1   
    11     4    19 1   
    12     5    24 1   
    13     5    25 1   
    14     5    26 1   
    15     6    20 1   
    16     6    21 1   
    17     6    22 2   
    18     7    27 1   
    19     7    28 1   
    20     7    29 1   
    21     7    40 1   
    22     8     9 ar  
    23     8    13 ar  
    24     8    40 1   
    25     9    10 ar  
    26     9    30 1   
    27    10    11 ar  
    28    10    31 1   
    29    11    12 ar  
    30    11    32 1   
    31    12    13 ar  
    32    12    33 1   
    33    13    39 1   
    34    14    15 2   
    35    14    17 1   
    36    14    39 1   
    37    15    16 1   
    38    20    35 1   
    39    21    36 1   
    40    21    37 1   
    41    21    38 1   
    42    34    39 1   
@<TRIPOS>SUBSTRUCTURE
     1 5XQ         1 TEMP              0 ****  ****    0 ROOT
