@<TRIPOS>MOLECULE
5XQ
   40    42     1     0     0
SMALL
No Charge or Current Charge


@<TRIPOS>ATOM
      1 C10         46.3780    63.5770    45.1430 cc         1 5XQ      -0.267000
      2 C11         47.7350    65.2270    43.8520 cd         1 5XQ      -0.313500
      3 C12         49.1360    67.0870    43.1600 cd         1 5XQ       0.520300
      4 C13         48.1440    66.0720    44.8710 cc         1 5XQ       0.337300
      5 C14         47.8560    66.0200    46.3460 c3         1 5XQ      -0.123400
      6 C15         50.2490    68.2340    41.2730 c          1 5XQ       0.600100
      7 C01         45.7030    57.4920    40.7580 c3         1 5XQ       0.156900
      8 C02         45.7720    59.9360    40.3400 ca         1 5XQ       0.079100
      9 C03         46.0280    59.7520    38.9610 ca         1 5XQ      -0.163000
     10 C04         46.1720    60.8650    38.1160 ca         1 5XQ      -0.105000
     11 C05         46.0540    62.1640    38.6340 ca         1 5XQ      -0.111000
     12 C06         45.8000    62.3550    40.0040 ca         1 5XQ      -0.107000
     13 C07         45.6710    61.2500    40.8690 ca         1 5XQ       0.282000
     14 C08         45.8260    62.3050    43.1740 cc         1 5XQ       0.742300
     15 N02         46.5910    63.3130    42.8350 nd         1 5XQ      -0.745000
     16 C09         46.9070    64.0520    43.9590 cd         1 5XQ       0.426500
     17 S01         45.4390    62.1380    44.8620 ss         1 5XQ      -0.117400
     18 S           48.3650    65.7540    42.2990 ss         1 5XQ       0.121600
     19 N03         48.9350    67.1190    44.4640 nc         1 5XQ      -0.717000
     20 N           49.9070    68.0630    42.5890 ns         1 5XQ      -0.468400
     21 C           51.1310    69.4460    41.0050 c3         1 5XQ      -0.168100
     22 O           49.8880    67.4890    40.3760 o          1 5XQ      -0.578100
     23 H1          46.4550    63.9390    46.1530 h4         1 5XQ       0.162000
     24 H2          48.3370    66.8490    46.8790 hc         1 5XQ       0.051033
     25 H3          46.7800    66.0990    46.5390 hc         1 5XQ       0.051033
     26 H4          48.2390    65.0930    46.7890 hc         1 5XQ       0.051033
     27 H5          45.5460    56.8070    41.6000 h1         1 5XQ       0.043033
     28 H6          44.9390    57.2770    39.9990 h1         1 5XQ       0.043033
     29 H7          46.6920    57.2850    40.3310 h1         1 5XQ       0.043033
     30 H8          46.1160    58.7600    38.5290 ha         1 5XQ       0.116000
     31 H9          46.3670    60.7210    37.0550 ha         1 5XQ       0.114000
     32 H10         46.1550    63.0240    37.9760 ha         1 5XQ       0.121000
     33 H11         45.6950    63.3640    40.3890 ha         1 5XQ       0.156000
     34 H12         45.0840    60.5590    42.6780 hn         1 5XQ       0.523000
     35 H13         50.2800    68.7590    43.2160 hn         1 5XQ       0.338500
     36 H14         50.6350    70.3430    41.3950 hc         1 5XQ       0.068700
     37 H15         52.0270    69.3830    41.6320 hc         1 5XQ       0.068700
     38 H16         51.3870    69.5550    39.9450 hc         1 5XQ       0.068700
     39 N01         45.4020    61.4170    42.2350 nu         1 5XQ      -0.922900
     40 O01         45.6130    58.8590    41.2030 os         1 5XQ      -0.378100
@<TRIPOS>BOND
     1     1    16 2   
     2     1    17 1   
     3     1    23 1   
     4     2     4 2   
     5     2    16 1   
     6     2    18 1   
     7     3    18 1   
     8     3    19 2   
     9     3    20 1   
    10     4     5 1   
    11     4    19 1   
    12     5    24 1   
    13     5    25 1   
    14     5    26 1   
    15     6    20 1   
    16     6    21 1   
    17     6    22 2   
    18     7    27 1   
    19     7    28 1   
    20     7    29 1   
    21     7    40 1   
    22     8     9 ar  
    23     8    13 ar  
    24     8    40 1   
    25     9    10 ar  
    26     9    30 1   
    27    10    11 ar  
    28    10    31 1   
    29    11    12 ar  
    30    11    32 1   
    31    12    13 ar  
    32    12    33 1   
    33    13    39 1   
    34    14    15 2   
    35    14    17 1   
    36    14    39 1   
    37    15    16 1   
    38    20    35 1   
    39    21    36 1   
    40    21    37 1   
    41    21    38 1   
    42    34    39 1   
@<TRIPOS>SUBSTRUCTURE
     1 5XQ         1 TEMP              0 ****  ****    0 ROOT
