@<TRIPOS>MOLECULE
5XR
   24    23     1     0     0
SMALL
No Charge or Current Charge


@<TRIPOS>ATOM
      1 OAI          3.6540     0.7240    -0.6790 o          1 5XR      -0.749000
      2 CAH          3.2080    -0.3710    -0.3680 c          1 5XR       0.729000
      3 OAJ          3.8240    -1.1740     0.3170 o          1 5XR      -0.749000
      4 CAD          1.8340    -0.7720    -0.9230 c3         1 5XR      -0.222400
      5 CAB          0.7130    -0.3050     0.0360 c3         1 5XR       0.301200
      6 CAA          0.8290     1.2950     0.3710 c          1 5XR       0.752000
      7 OAG          1.2360     1.6580     1.4720 o          1 5XR      -0.720000
      8 OAF          0.3170     2.0840    -0.4220 o          1 5XR      -0.720000
      9 OAC          0.6920    -1.1390     1.1660 oh         1 5XR      -0.624000
     10 NAE         -0.5590    -0.7810    -0.5520 n7         1 5XR      -0.992400
     11 CAK         -1.7830    -0.2060    -0.0780 c3         1 5XR       0.452500
     12 OAO         -1.9440     0.8760    -0.9370 oh         1 5XR      -0.782000
     13 CAL         -2.9210    -1.2060    -0.2660 c3         1 5XR      -0.202400
     14 CAM         -4.2080    -0.6420     0.3190 c          1 5XR       0.609900
     15 OAN         -5.0540    -0.0380    -0.3350 o          1 5XR      -0.582100
     16 H2           1.6480    -0.2460    -1.8680 hc         1 5XR       0.012200
     17 H3           1.7600    -1.8650    -1.0090 hc         1 5XR       0.012200
     18 H5          -0.0300    -1.7410     0.8950 ho         1 5XR       0.402000
     19 H6          -0.5450    -0.5540    -1.5480 hn         1 5XR       0.416000
     20 H8          -1.7170     0.1260     0.9690 h2         1 5XR       0.047700
     21 H9          -1.1060     1.4030    -0.7990 ho         1 5XR       0.527000
     22 H10         -3.0530    -1.4480    -1.3270 hc         1 5XR       0.055700
     23 H11         -2.6510    -2.0940     0.3160 hc         1 5XR       0.055700
     24 H13         -4.3460    -0.8110     1.4100 h4         1 5XR      -0.029800
@<TRIPOS>BOND
     1     1     2 1   
     2     2     3 1   
     3     2     4 1   
     4     4     5 1   
     5     4    16 1   
     6     4    17 1   
     7     5     6 1   
     8     5     9 1   
     9     5    10 1   
    10     6     7 1   
    11     6     8 1   
    12     9    18 1   
    13    10    11 1   
    14    10    19 1   
    15    11    12 1   
    16    11    13 1   
    17    11    20 1   
    18    12    21 1   
    19    13    14 1   
    20    13    22 1   
    21    13    23 1   
    22    14    15 2   
    23    14    24 1   
@<TRIPOS>SUBSTRUCTURE
     1 5XR         1 TEMP              0 ****  ****    0 ROOT
