@<TRIPOS>MOLECULE
5XR
   24    23     1     0     0
SMALL
abcg2


@<TRIPOS>ATOM
      1 OAI          3.5560     0.7550    -0.2660 o          1 5XR      -0.749000
      2 CAH          3.1890    -0.4200    -0.4670 c          1 5XR       0.729000
      3 OAJ          3.8730    -1.4490    -0.2880 o          1 5XR      -0.749000
      4 CAD          1.7550    -0.6090    -0.9790 c3         1 5XR      -0.222400
      5 CAB          0.7050    -0.3850     0.1200 c3         1 5XR       0.301200
      6 CAA          0.6890     1.1170     0.5390 c          1 5XR       0.752000
      7 OAG          1.0430     1.4230     1.6790 o          1 5XR      -0.720000
      8 OAF          0.2810     1.9160    -0.3500 o          1 5XR      -0.720000
      9 OAC          1.0320    -1.1230     1.2760 oh         1 5XR      -0.624000
     10 NAE         -0.5710    -0.8500    -0.4050 n7         1 5XR      -0.992400
     11 CAK         -1.7910    -0.1810    -0.0630 c3         1 5XR       0.452500
     12 OAO         -2.0850     0.9360    -0.8670 oh         1 5XR      -0.782000
     13 CAL         -2.9780    -1.1300    -0.2020 c3         1 5XR      -0.202400
     14 CAM         -4.2550    -0.4030     0.0790 c          1 5XR       0.609900
     15 OAN         -5.2380    -0.4210    -0.6210 o          1 5XR      -0.582100
     16 H2           1.5490     0.0860    -1.7960 hc         1 5XR       0.012200
     17 H3           1.6230    -1.6240    -1.3710 hc         1 5XR       0.012200
     18 H5           1.0600    -2.0490     1.0110 ho         1 5XR       0.402000
     19 H6          -0.5330    -1.0520    -1.3960 hn         1 5XR       0.416000
     20 H8          -1.7100     0.1080     0.9960 h2         1 5XR       0.047700
     21 H9          -1.2560     1.4720    -0.8360 ho         1 5XR       0.527000
     22 H10         -3.0100    -1.5810    -1.1960 hc         1 5XR       0.055700
     23 H11         -2.8780    -1.9310     0.5360 hc         1 5XR       0.055700
     24 H13         -4.2530     0.1680     1.0270 h4         1 5XR      -0.029800
@<TRIPOS>BOND
     1     1     2 1   
     2     2     3 1   
     3     2     4 1   
     4     4     5 1   
     5     4    16 1   
     6     4    17 1   
     7     5     6 1   
     8     5     9 1   
     9     5    10 1   
    10     6     7 1   
    11     6     8 1   
    12     9    18 1   
    13    10    11 1   
    14    10    19 1   
    15    11    12 1   
    16    11    13 1   
    17    11    20 1   
    18    12    21 1   
    19    13    14 1   
    20    13    22 1   
    21    13    23 1   
    22    14    15 2   
    23    14    24 1   
@<TRIPOS>SUBSTRUCTURE
     1 5XR         1 TEMP              0 ****  ****    0 ROOT
