@<TRIPOS>MOLECULE
5XS
   33    35     1     0     0
SMALL
bcc


@<TRIPOS>ATOM
      1 C10         -0.0880    -0.6470     0.3480 c          1 5XS       0.693700
      2 N12         -1.2370     0.1000     0.2500 ns         1 5XS      -0.569400
      3 C13         -2.5320    -0.3820     0.2510 ca         1 5XS       0.610200
      4 C15         -4.0870    -1.9540     0.8360 ca         1 5XS       0.665900
      5 C17         -4.8670    -0.1840    -0.2510 ca         1 5XS       0.575300
      6 C21         -3.5720     0.3440    -0.3250 ca         1 5XS      -0.375800
      7 C22          2.3440    -0.4180     0.0130 ca         1 5XS      -0.022000
      8 C01          7.0970    -0.2000    -0.7050 c3         1 5XS       0.130700
      9 O02          5.8580     0.3350    -0.2350 os         1 5XS      -0.418900
     10 O04          4.7700    -1.4840    -0.9310 o          1 5XS      -0.526000
     11 C05          3.5490     0.2620     0.1260 ca         1 5XS      -0.148600
     12 C06          3.5790     1.5180     0.7310 ca         1 5XS      -0.049000
     13 C07          2.4070     2.0810     1.2110 ca         1 5XS      -0.154000
     14 C08          1.2020     1.4070     1.0830 ca         1 5XS      -0.079000
     15 C09          1.1650     0.1530     0.4770 ca         1 5XS      -0.176600
     16 O11         -0.0680    -1.8560     0.3110 o          1 5XS      -0.508100
     17 N14         -2.8200    -1.5320     0.8300 nb         1 5XS      -0.720000
     18 N16         -5.1430    -1.3500     0.3330 nb         1 5XS      -0.656000
     19 N18         -5.7530     0.6510    -0.8610 nc         1 5XS      -0.631700
     20 C19         -5.0220     1.6470    -1.2900 cd         1 5XS       0.435700
     21 N20         -3.7090     1.5230    -1.0000 na         1 5XS      -0.247300
     22 H1          -1.1260     1.0860     0.0640 hn         1 5XS       0.318500
     23 H2          -4.2560    -2.9080     1.3230 h5         1 5XS       0.059100
     24 H3           2.3200    -1.3950    -0.4500 ha         1 5XS       0.178000
     25 H4           7.3480    -1.1270    -0.1910 h1         1 5XS       0.051033
     26 H5           7.0700    -0.3780    -1.7790 h1         1 5XS       0.051033
     27 H6           7.8480     0.5510    -0.4810 h1         1 5XS       0.051033
     28 H7           4.5070     2.0610     0.8370 ha         1 5XS       0.154000
     29 H8           2.4330     3.0490     1.6930 ha         1 5XS       0.142000
     30 H9           0.3050     1.8590     1.4860 ha         1 5XS       0.134000
     31 H11         -5.3930     2.5030    -1.8320 h5         1 5XS       0.068800
     32 H12         -2.9910     2.1780    -1.2700 hn         1 5XS       0.308700
     33 C03          4.7720    -0.3980    -0.4050 c          1 5XS       0.653700
@<TRIPOS>BOND
     1     1     2 1   
     2     1    15 1   
     3     1    16 2   
     4     2     3 1   
     5     2    22 1   
     6     3     6 ar  
     7     3    17 ar  
     8     4    17 ar  
     9     4    18 ar  
    10     4    23 1   
    11     5     6 ar  
    12     5    18 ar  
    13     5    19 1   
    14     6    21 1   
    15     7    11 ar  
    16     7    15 ar  
    17     7    24 1   
    18     8     9 1   
    19     8    25 1   
    20     8    26 1   
    21     8    27 1   
    22     9    33 1   
    23    10    33 2   
    24    11    12 ar  
    25    11    33 1   
    26    12    13 ar  
    27    12    28 1   
    28    13    14 ar  
    29    13    29 1   
    30    14    15 ar  
    31    14    30 1   
    32    19    20 2   
    33    20    21 1   
    34    20    31 1   
    35    21    32 1   
@<TRIPOS>SUBSTRUCTURE
     1 5XS         1 TEMP              0 ****  ****    0 ROOT
