@<TRIPOS>MOLECULE
5XS
   33    35     1     0     0
SMALL
No Charge or Current Charge


@<TRIPOS>ATOM
      1 C10         -0.1030    -0.7520     0.0230 c          1 5XS       0.626700
      2 N12         -1.3040    -0.0660     0.0920 ns         1 5XS      -0.335900
      3 C13         -2.6400    -0.5270     0.1110 ca         1 5XS       0.281900
      4 C15         -4.1580    -2.2300     0.3820 ca         1 5XS       0.139900
      5 C17         -5.0110    -0.1340     0.0040 ca         1 5XS       0.247000
      6 C21         -3.7290     0.3450    -0.0530 ca         1 5XS      -0.245200
      7 C22          2.4150    -0.5260    -0.0240 ca         1 5XS      -0.004000
      8 C01          7.3410    -0.2100    -0.1280 c3         1 5XS       0.153900
      9 O02          6.0230     0.3650    -0.0470 os         1 5XS      -0.442100
     10 O04          5.0430    -1.6970    -0.1880 o          1 5XS      -0.477000
     11 C05          3.6110     0.2270     0.0050 ca         1 5XS      -0.148600
     12 C06          3.5320     1.6320     0.1200 ca         1 5XS      -0.031000
     13 C07          2.2820     2.2640     0.2040 ca         1 5XS      -0.136000
     14 C08          1.0980     1.5110     0.1750 ca         1 5XS      -0.061000
     15 C09          1.1500     0.1010     0.0590 ca         1 5XS      -0.176600
     16 O11         -0.0390    -1.9720    -0.0680 o          1 5XS      -0.508100
     17 N14         -2.8620    -1.8380     0.3420 nb         1 5XS      -0.194000
     18 N16         -5.2500    -1.4430     0.2230 nb         1 5XS      -0.130000
     19 N18         -5.9110     0.9020    -0.1910 nc         1 5XS      -0.631700
     20 C19         -5.1240     1.9860    -0.3600 cd         1 5XS       0.435700
     21 N20         -3.7570     1.6990    -0.2840 na         1 5XS      -0.297600
     22 H1          -1.2170     0.9380     0.1380 hn         1 5XS       0.152000
     23 H2          -4.3430    -3.2870     0.5640 h5         1 5XS       0.059100
     24 H3           2.4730    -1.6100    -0.1130 ha         1 5XS       0.160000
     25 H4           7.5190    -0.9020     0.7060 h1         1 5XS       0.051033
     26 H5           7.4720    -0.7590    -1.0700 h1         1 5XS       0.051033
     27 H6           8.1050     0.5770    -0.0850 h1         1 5XS       0.051033
     28 H7           4.4320     2.2430     0.1450 ha         1 5XS       0.136000
     29 H8           2.2310     3.3470     0.2930 ha         1 5XS       0.124000
     30 H9           0.1510     2.0410     0.2440 ha         1 5XS       0.116000
     31 H11         -5.4710     2.9970    -0.5410 h5         1 5XS       0.068800
     32 H12         -2.9930     2.3560    -0.3920 hn         1 5XS       0.359000
     33 C03          4.9430    -0.4810    -0.0870 c          1 5XS       0.604700
@<TRIPOS>BOND
     1     1     2 1   
     2     1    15 1   
     3     1    16 2   
     4     2     3 1   
     5     2    22 1   
     6     3     6 ar  
     7     3    17 ar  
     8     4    17 ar  
     9     4    18 ar  
    10     4    23 1   
    11     5     6 ar  
    12     5    18 ar  
    13     5    19 1   
    14     6    21 1   
    15     7    11 ar  
    16     7    15 ar  
    17     7    24 1   
    18     8     9 1   
    19     8    25 1   
    20     8    26 1   
    21     8    27 1   
    22     9    33 1   
    23    10    33 2   
    24    11    12 ar  
    25    11    33 1   
    26    12    13 ar  
    27    12    28 1   
    28    13    14 ar  
    29    13    29 1   
    30    14    15 ar  
    31    14    30 1   
    32    19    20 2   
    33    20    21 1   
    34    20    31 1   
    35    21    32 1   
@<TRIPOS>SUBSTRUCTURE
     1 5XS         1 TEMP              0 ****  ****    0 ROOT
