@<TRIPOS>MOLECULE
5XT
   39    41     1     0     0
SMALL
No Charge or Current Charge


@<TRIPOS>ATOM
      1 CAG          3.4390    -0.5650    -1.3910 ca         1 5XT      -0.185000
      2 CAW          3.7140    -1.9370    -1.2620 ca         1 5XT       0.055100
      3 OAD          4.2640    -2.6290    -2.3100 oh         1 5XT      -0.555100
      4 CAR          3.4230    -2.6030    -0.0550 ca         1 5XT       0.128100
      5 OAA          3.6920    -3.9350     0.0620 oh         1 5XT      -0.529100
      6 CAE          2.8630    -1.8970     1.0200 ca         1 5XT      -0.117000
      7 CAF          2.5900    -0.5230     0.8880 ca         1 5XT      -0.068000
      8 CAS          2.8720     0.1500    -0.3210 ca         1 5XT       0.224000
      9 NAQ          2.6160     1.5080    -0.5030 nu         1 5XT      -0.861100
     10 SAX          1.5750     2.5410     0.3200 sy         1 5XT       1.141600
     11 OAB          2.1210     2.6230     1.6770 o          1 5XT      -0.528500
     12 OAC          1.5200     3.6990    -0.5750 o          1 5XT      -0.528500
     13 CAV         -0.0160     1.7040     0.3190 ca         1 5XT      -0.312500
     14 CAP         -0.7400     1.5800    -0.8830 ca         1 5XT      -0.012500
     15 CAN         -1.9770     0.9150    -0.8930 ca         1 5XT      -0.127000
     16 CAO         -0.5420     1.1600     1.5070 ca         1 5XT      -0.012500
     17 CAM         -1.7810     0.4970     1.4880 ca         1 5XT      -0.127000
     18 CAU         -2.5250     0.3590     0.2900 cp         1 5XT       0.026000
     19 CAT         -3.8440    -0.3500     0.2740 cp         1 5XT      -0.055000
     20 CAK         -4.2460    -1.1270    -0.8430 ca         1 5XT      -0.092500
     21 CAI         -5.4840    -1.7940    -0.8570 ca         1 5XT      -0.111000
     22 CAH         -6.3480    -1.6970     0.2450 ca         1 5XT      -0.098000
     23 CAJ         -5.9730    -0.9330     1.3620 ca         1 5XT      -0.111000
     24 CAL         -4.7350    -0.2680     1.3760 ca         1 5XT      -0.092500
     25 H1           3.6630    -0.0510    -2.3210 ha         1 5XT       0.115000
     26 H3           2.6430    -2.4100     1.9530 ha         1 5XT       0.140000
     27 H5           2.1670     0.0090     1.7330 ha         1 5XT       0.148000
     28 H6           2.7360     1.8940    -1.4290 hn         1 5XT       0.485000
     29 H7          -0.3470     1.9960    -1.8100 ha         1 5XT       0.137500
     30 H8          -2.5240     0.8430    -1.8300 ha         1 5XT       0.122000
     31 H9           0.0020     1.2440     2.4470 ha         1 5XT       0.137500
     32 H10         -2.1600     0.0730     2.4140 ha         1 5XT       0.122000
     33 H11         -3.5870    -1.2270    -1.7010 ha         1 5XT       0.115500
     34 H12         -5.7710    -2.3870    -1.7230 ha         1 5XT       0.116500
     35 H13         -7.3060    -2.2120     0.2340 ha         1 5XT       0.116000
     36 H14         -6.6420    -0.8540     2.2160 ha         1 5XT       0.116500
     37 H15         -4.4700     0.3280     2.2460 ha         1 5XT       0.115500
     38 H2           4.4000    -2.0110    -3.0620 ho         1 5XT       0.477000
     39 H16          4.0760    -4.2090    -0.8010 ho         1 5XT       0.484000
@<TRIPOS>BOND
     1     1     2 ar  
     2     1     8 ar  
     3     1    25 1   
     4     2     3 1   
     5     2     4 ar  
     6     3    38 1   
     7     4     5 1   
     8     4     6 ar  
     9     5    39 1   
    10     6     7 ar  
    11     6    26 1   
    12     7     8 ar  
    13     7    27 1   
    14     8     9 1   
    15     9    10 1   
    16     9    28 1   
    17    10    11 2   
    18    10    12 2   
    19    10    13 1   
    20    13    14 ar  
    21    13    16 ar  
    22    14    15 ar  
    23    14    29 1   
    24    15    18 ar  
    25    15    30 1   
    26    16    17 ar  
    27    16    31 1   
    28    17    18 ar  
    29    17    32 1   
    30    18    19 1   
    31    19    20 ar  
    32    19    24 ar  
    33    20    21 ar  
    34    20    33 1   
    35    21    22 ar  
    36    21    34 1   
    37    22    23 ar  
    38    22    35 1   
    39    23    24 ar  
    40    23    36 1   
    41    24    37 1   
@<TRIPOS>SUBSTRUCTURE
     1 5XT         1 TEMP              0 ****  ****    0 ROOT
