@<TRIPOS>MOLECULE
5XT
   39    41     1     0     0
SMALL
abcg2


@<TRIPOS>ATOM
      1 CAG          2.2440    -0.6990    -0.8970 ca         1 5XT      -0.185000
      2 CAW          2.4940    -2.0180    -0.5650 ca         1 5XT       0.055100
      3 OAD          1.9140    -3.0720    -1.1790 oh         1 5XT      -0.555100
      4 CAR          3.3840    -2.3220     0.4750 ca         1 5XT       0.128100
      5 OAA          3.6460    -3.5960     0.8320 oh         1 5XT      -0.529100
      6 CAE          4.0160    -1.2890     1.1470 ca         1 5XT      -0.117000
      7 CAF          3.7840     0.0350     0.8000 ca         1 5XT      -0.068000
      8 CAS          2.8960     0.3310    -0.2210 ca         1 5XT       0.224000
      9 NAQ          2.6530     1.6850    -0.5770 nu         1 5XT      -0.861100
     10 SAX          1.5890     2.5660     0.3510 sy         1 5XT       1.141600
     11 OAB          2.0650     2.5040     1.7210 o          1 5XT      -0.528500
     12 OAC          1.4570     3.8470    -0.3220 o          1 5XT      -0.528500
     13 CAV          0.0450     1.7120     0.2680 ca         1 5XT      -0.312500
     14 CAP         -0.8590     2.0360    -0.7350 ca         1 5XT      -0.012500
     15 CAN         -2.0420     1.3250    -0.8320 ca         1 5XT      -0.127000
     16 CAO         -0.2200     0.6850     1.1640 ca         1 5XT      -0.012500
     17 CAM         -1.4050    -0.0210     1.0510 ca         1 5XT      -0.127000
     18 CAU         -2.3330     0.2840     0.0540 cp         1 5XT       0.026000
     19 CAT         -3.5970    -0.4670    -0.0610 cp         1 5XT      -0.055000
     20 CAK         -4.1450    -0.7520    -1.3130 ca         1 5XT      -0.092500
     21 CAI         -5.3360    -1.4540    -1.4210 ca         1 5XT      -0.111000
     22 CAH         -6.0020    -1.8810    -0.2800 ca         1 5XT      -0.098000
     23 CAJ         -5.4670    -1.6030     0.9710 ca         1 5XT      -0.111000
     24 CAL         -4.2730    -0.9040     1.0790 ca         1 5XT      -0.092500
     25 H1           1.5400    -0.4700    -1.6900 ha         1 5XT       0.115000
     26 H3           4.7090    -1.5260     1.9440 ha         1 5XT       0.140000
     27 H5           4.3060     0.8270     1.3170 ha         1 5XT       0.148000
     28 H6           2.4890     1.8390    -1.5670 hn         1 5XT       0.485000
     29 H7          -0.6640     2.8420    -1.4280 ha         1 5XT       0.137500
     30 H8          -2.7560     1.6010    -1.5960 ha         1 5XT       0.122000
     31 H9           0.4840     0.4290     1.9430 ha         1 5XT       0.137500
     32 H10         -1.5940    -0.8320     1.7420 ha         1 5XT       0.122000
     33 H11         -3.6280    -0.4440    -2.2130 ha         1 5XT       0.115500
     34 H12         -5.7430    -1.6700    -2.4000 ha         1 5XT       0.116500
     35 H13         -6.9320    -2.4270    -0.3650 ha         1 5XT       0.116000
     36 H14         -5.9820    -1.9220     1.8670 ha         1 5XT       0.116500
     37 H15         -3.8780    -0.6780     2.0620 ha         1 5XT       0.115500
     38 H2           1.3460    -2.7840    -1.9020 ho         1 5XT       0.477000
     39 H16          3.1550    -4.2120     0.2750 ho         1 5XT       0.484000
@<TRIPOS>BOND
     1     1     2 ar  
     2     1     8 ar  
     3     1    25 1   
     4     2     3 1   
     5     2     4 ar  
     6     3    38 1   
     7     4     5 1   
     8     4     6 ar  
     9     5    39 1   
    10     6     7 ar  
    11     6    26 1   
    12     7     8 ar  
    13     7    27 1   
    14     8     9 1   
    15     9    10 1   
    16     9    28 1   
    17    10    11 2   
    18    10    12 2   
    19    10    13 1   
    20    13    14 ar  
    21    13    16 ar  
    22    14    15 ar  
    23    14    29 1   
    24    15    18 ar  
    25    15    30 1   
    26    16    17 ar  
    27    16    31 1   
    28    17    18 ar  
    29    17    32 1   
    30    18    19 1   
    31    19    20 ar  
    32    19    24 ar  
    33    20    21 ar  
    34    20    33 1   
    35    21    22 ar  
    36    21    34 1   
    37    22    23 ar  
    38    22    35 1   
    39    23    24 ar  
    40    23    36 1   
    41    24    37 1   
@<TRIPOS>SUBSTRUCTURE
     1 5XT         1 TEMP              0 ****  ****    0 ROOT
