@<TRIPOS>MOLECULE
5XU
   12    11     1     0     0
SMALL
bcc


@<TRIPOS>ATOM
      1 N           -8.6240    16.3290     3.3330 n8         1 5XU      -0.872800
      2 CA          -8.0400    17.5810     3.7590 c3         1 5XU       0.044500
      3 C           -8.7030    18.7530     3.0930 c          1 5XU       0.571900
      4 O           -9.6380    18.6900     2.3370 o          1 5XU      -0.496100
      5 CB          -6.5460    17.6150     3.4380 c3         1 5XU      -0.085100
      6 H           -8.1860    15.5710     3.8410 hn         1 5XU       0.347300
      7 H2          -9.6060    16.2970     3.5770 hn         1 5XU       0.347300
      8 HA          -8.1440    17.7850     4.8400 h1         1 5XU       0.027700
      9 HB1         -6.0280    16.8260     3.9820 hc         1 5XU       0.044367
     10 HB2         -6.3770    17.4640     2.3720 hc         1 5XU       0.044367
     11 HB3         -6.1000    18.5660     3.7290 hc         1 5XU       0.044367
     12 HXT         -8.2560    19.7270     3.3710 h4         1 5XU      -0.017800
@<TRIPOS>BOND
     1     1     2 1   
     2     1     6 1   
     3     1     7 1   
     4     2     3 1   
     5     2     5 1   
     6     2     8 1   
     7     3     4 2   
     8     3    12 1   
     9     5     9 1   
    10     5    10 1   
    11     5    11 1   
@<TRIPOS>SUBSTRUCTURE
     1 5XU         1 TEMP              0 ****  ****    0 ROOT
