@<TRIPOS>MOLECULE
5XV
   42    44     1     0     0
SMALL
No Charge or Current Charge


@<TRIPOS>ATOM
      1 C1          -1.5100     3.1350    -0.0060 cc         1 5XV      -0.092000
      2 C2          -0.6500     1.9570    -0.0320 cc         1 5XV      -0.170500
      3 C3          -1.1990     0.6620    -0.0330 cd         1 5XV      -0.068000
      4 C11          0.8380     2.0280    -0.0600 ca         1 5XV       0.342500
      5 C12         -5.9540    -2.1410     0.0280 c          1 5XV       0.609100
      6 C13         -7.4110    -2.5900     0.0500 c3         1 5XV      -0.177100
      7 C16          2.8920     0.9440    -0.0930 ca         1 5XV       0.502300
      8 C17          3.5530     2.2380    -0.1140 ca         1 5XV       0.572900
      9 C19          1.5350     3.2870    -0.0830 ca         1 5XV       0.329900
     10 C21          3.0770    -1.5320    -0.2670 c3         1 5XV       0.118300
     11 C22          4.0670    -2.5980     0.2920 c3         1 5XV       0.300000
     12 C23          2.7850    -1.6970    -1.7800 c3         1 5XV      -0.117100
     13 N4          -2.5920     0.6090    -0.0080 na         1 5XV       0.140100
     14 C5          -3.4030     1.7070     0.0160 cd         1 5XV      -0.059000
     15 C6          -2.8850     3.0290     0.0180 cd         1 5XV      -0.084000
     16 C7          -3.3230    -0.5490    -0.0050 cd         1 5XV      -0.291100
     17 C8          -4.6060    -0.0510     0.0220 cc         1 5XV       0.212200
     18 N9          -4.6670     1.3210     0.0360 nc         1 5XV      -0.337600
     19 N10         -5.7790    -0.7750     0.0370 ns         1 5XV      -0.390100
     20 O14         -5.0320    -2.9460     0.0050 o          1 5XV      -0.591100
     21 N15          1.5330     0.8490    -0.0590 nb         1 5XV      -0.721000
     22 N18          2.8950     3.4050    -0.1070 nb         1 5XV      -0.711000
     23 N20          4.8940     2.4760    -0.1290 nv         1 5XV      -1.043900
     24 F24          5.2620    -2.5510    -0.3440 f          1 5XV      -0.109333
     25 F25          4.2920    -2.4020     1.6120 f          1 5XV      -0.109333
     26 F26          3.5680    -3.8470     0.1440 f          1 5XV      -0.109333
     27 O27          3.6550    -0.2160    -0.0670 os         1 5XV      -0.463300
     28 H28         -1.0780     4.1290    -0.0040 ha         1 5XV       0.123000
     29 H29         -0.6650    -0.2800    -0.0520 h4         1 5XV       0.161000
     30 H34         -7.9100    -2.1430     0.9170 hc         1 5XV       0.064700
     31 H35         -7.9400    -2.1270    -0.7910 hc         1 5XV       0.064700
     32 H33         -7.5160    -3.6810     0.0420 hc         1 5XV       0.064700
     33 H36          1.0010     4.2330    -0.0830 h4         1 5XV       0.034100
     34 H39          2.1390    -1.6390     0.2950 h1         1 5XV       0.096700
     35 H42          2.3850    -2.6960    -1.9900 hc         1 5XV       0.063033
     36 H41          2.0430    -0.9660    -2.1210 hc         1 5XV       0.063033
     37 H40          3.6970    -1.5620    -2.3730 hc         1 5XV       0.063033
     38 H30         -3.5300     3.9020     0.0380 ha         1 5XV       0.144000
     39 H31         -2.9120    -1.5500    -0.0210 h4         1 5XV       0.258000
     40 H32         -6.6400    -0.2440     0.0570 hn         1 5XV       0.336500
     41 H37          5.5050     1.7110     0.1450 hn         1 5XV       0.489500
     42 H38          5.1850     3.4130     0.1250 hn         1 5XV       0.489500
@<TRIPOS>BOND
     1     1     2 1   
     2     1    15 2   
     3     1    28 1   
     4     2     3 2   
     5     2     4 1   
     6     3    13 1   
     7     3    29 1   
     8     4     9 ar  
     9     4    21 ar  
    10     5     6 1   
    11     5    19 1   
    12     5    20 2   
    13     6    30 1   
    14     6    31 1   
    15     6    32 1   
    16     7     8 ar  
    17     7    21 ar  
    18     7    27 1   
    19     8    22 ar  
    20     8    23 1   
    21     9    22 ar  
    22     9    33 1   
    23    10    11 1   
    24    10    12 1   
    25    10    27 1   
    26    10    34 1   
    27    11    24 1   
    28    11    25 1   
    29    11    26 1   
    30    12    35 1   
    31    12    36 1   
    32    12    37 1   
    33    13    14 1   
    34    13    16 1   
    35    14    15 1   
    36    14    18 2   
    37    15    38 1   
    38    16    17 2   
    39    16    39 1   
    40    17    18 1   
    41    17    19 1   
    42    19    40 1   
    43    23    41 1   
    44    23    42 1   
@<TRIPOS>SUBSTRUCTURE
     1 5XV         1 TEMP              0 ****  ****    0 ROOT
