@<TRIPOS>MOLECULE
5XV
   42    44     1     0     0
SMALL
abcg2


@<TRIPOS>ATOM
      1 C1          -1.4190     3.0350     0.4190 cc         1 5XV      -0.092000
      2 C2          -0.5890     1.9330     0.0670 cc         1 5XV      -0.170500
      3 C3          -1.1770     0.7180    -0.1480 cd         1 5XV      -0.068000
      4 C11          0.8680     2.0640    -0.0640 ca         1 5XV       0.342500
      5 C12         -5.9480    -2.0780    -0.2570 c          1 5XV       0.609100
      6 C13         -7.3700    -2.5680    -0.2230 c3         1 5XV      -0.177100
      7 C16          2.8660     0.9910    -0.2620 ca         1 5XV       0.502300
      8 C17          3.5580     2.2400    -0.3160 ca         1 5XV       0.572900
      9 C19          1.5300     3.2700    -0.1320 ca         1 5XV       0.329900
     10 C21          3.0070    -1.3770    -0.2020 c3         1 5XV       0.118300
     11 C22          4.0890    -2.2570     0.4020 c3         1 5XV       0.300000
     12 C23          2.5000    -1.8980    -1.5340 c3         1 5XV      -0.117100
     13 N4          -2.5230     0.5840    -0.0300 na         1 5XV       0.140100
     14 C5          -3.3530     1.6350     0.3040 cd         1 5XV      -0.059000
     15 C6          -2.7690     2.8930     0.5350 cd         1 5XV      -0.084000
     16 C7          -3.3120    -0.5280    -0.1970 cd         1 5XV      -0.291100
     17 C8          -4.5880    -0.0750     0.0480 cc         1 5XV       0.212200
     18 N9          -4.6130     1.2410     0.3530 nc         1 5XV      -0.337600
     19 N10         -5.7890    -0.7600     0.0230 ns         1 5XV      -0.390100
     20 O14         -5.0070    -2.8080    -0.5160 o          1 5XV      -0.591100
     21 N15          1.5850     0.9240    -0.1400 nb         1 5XV      -0.721000
     22 N18          2.8600     3.3500    -0.2510 nb         1 5XV      -0.711000
     23 N20          4.9020     2.2860    -0.4750 nv         1 5XV      -1.043900
     24 F24          5.1630    -2.3590    -0.3880 f          1 5XV      -0.109333
     25 F25          4.5100    -1.7840     1.5790 f          1 5XV      -0.109333
     26 F26          3.6280    -3.4950     0.6110 f          1 5XV      -0.109333
     27 O27          3.6270    -0.1080    -0.3410 os         1 5XV      -0.463300
     28 H28         -0.9790     4.0030     0.6180 ha         1 5XV       0.123000
     29 H29         -0.6240    -0.1700    -0.4160 h4         1 5XV       0.161000
     30 H34         -8.0940    -1.7930     0.0190 hc         1 5XV       0.064700
     31 H35         -7.6280    -2.9900    -1.1950 hc         1 5XV       0.064700
     32 H33         -7.4600    -3.3680     0.5120 hc         1 5XV       0.064700
     33 H36          1.0020     4.2150    -0.0970 h4         1 5XV       0.034100
     34 H39          2.1840    -1.3240     0.5170 h1         1 5XV       0.096700
     35 H42          2.0870    -2.9000    -1.4280 hc         1 5XV       0.063033
     36 H41          1.7000    -1.2540    -1.8960 hc         1 5XV       0.063033
     37 H40          3.2890    -1.9220    -2.2840 hc         1 5XV       0.063033
     38 H30         -3.4030     3.7240     0.8100 ha         1 5XV       0.144000
     39 H31         -2.9050    -1.4830    -0.4680 h4         1 5XV       0.258000
     40 H32         -6.6040    -0.2040     0.2300 hn         1 5XV       0.336500
     41 H37          5.4500     1.4780    -0.2350 hn         1 5XV       0.489500
     42 H38          5.3470     3.1710    -0.2960 hn         1 5XV       0.489500
@<TRIPOS>BOND
     1     1     2 1   
     2     1    15 2   
     3     1    28 1   
     4     2     3 2   
     5     2     4 1   
     6     3    13 1   
     7     3    29 1   
     8     4     9 ar  
     9     4    21 ar  
    10     5     6 1   
    11     5    19 1   
    12     5    20 2   
    13     6    30 1   
    14     6    31 1   
    15     6    32 1   
    16     7     8 ar  
    17     7    21 ar  
    18     7    27 1   
    19     8    22 ar  
    20     8    23 1   
    21     9    22 ar  
    22     9    33 1   
    23    10    11 1   
    24    10    12 1   
    25    10    27 1   
    26    10    34 1   
    27    11    24 1   
    28    11    25 1   
    29    11    26 1   
    30    12    35 1   
    31    12    36 1   
    32    12    37 1   
    33    13    14 1   
    34    13    16 1   
    35    14    15 1   
    36    14    18 2   
    37    15    38 1   
    38    16    17 2   
    39    16    39 1   
    40    17    18 1   
    41    17    19 1   
    42    19    40 1   
    43    23    41 1   
    44    23    42 1   
@<TRIPOS>SUBSTRUCTURE
     1 5XV         1 TEMP              0 ****  ****    0 ROOT
