@<TRIPOS>MOLECULE
5XW
   21    20     1     0     0
SMALL
No Charge or Current Charge


@<TRIPOS>ATOM
      1 OAD          2.9130     1.8020     0.7470 o          1 5XW      -0.752000
      2 CAC          2.9400     0.8040     0.0450 c          1 5XW       0.736000
      3 OAE          3.6800    -0.1430     0.2590 o          1 5XW      -0.752000
      4 CAA          1.9240     0.6890    -1.0800 c3         1 5XW      -0.249700
      5 CAB          0.6800     0.0380    -0.4930 ce         1 5XW       0.472300
      6 CAG          0.5810    -1.5390    -0.5460 c          1 5XW       0.610700
      7 OAI          1.4990    -2.1880    -1.0430 o          1 5XW      -0.734000
      8 OAH         -0.4040    -2.1310    -0.1100 o          1 5XW      -0.734000
      9 NAF         -0.3000     0.8480    -0.1310 n2         1 5XW      -0.757900
     10 CAJ         -1.5470     0.4300     0.4620 c3         1 5XW       0.382500
     11 OAN         -1.8720     1.5360     1.2450 oh         1 5XW      -0.694000
     12 CAK         -2.6080     0.2470    -0.6270 c3         1 5XW      -0.245400
     13 CAL         -3.8660    -0.3660    -0.0300 c          1 5XW       0.600900
     14 OAM         -4.8160     0.2930     0.3840 o          1 5XW      -0.598100
     15 H2           1.6450     1.6830    -1.4520 hc         1 5XW       0.026700
     16 H3           2.3080     0.0430    -1.8760 hc         1 5XW       0.026700
     17 H5          -2.8370     1.2050    -1.1070 hc         1 5XW       0.077700
     18 H6          -2.2060    -0.4700    -1.3500 hc         1 5XW       0.077700
     19 H7          -3.8800    -1.4780     0.0120 h4         1 5XW      -0.024800
     20 H8          -1.4570    -0.4580     1.1080 h2         1 5XW       0.103700
     21 H9          -1.1420     2.1460     1.0120 ho         1 5XW       0.427000
@<TRIPOS>BOND
     1     1     2 1   
     2     2     3 1   
     3     2     4 1   
     4     4     5 1   
     5     4    15 1   
     6     4    16 1   
     7     5     6 1   
     8     5     9 2   
     9     6     7 1   
    10     6     8 1   
    11     9    10 1   
    12    10    11 1   
    13    10    12 1   
    14    10    20 1   
    15    11    21 1   
    16    12    13 1   
    17    12    17 1   
    18    12    18 1   
    19    13    14 2   
    20    13    19 1   
@<TRIPOS>SUBSTRUCTURE
     1 5XW         1 TEMP              0 ****  ****    0 ROOT
