@<TRIPOS>MOLECULE
5XW
   21    20     1     0     0
SMALL
abcg2


@<TRIPOS>ATOM
      1 OAD          2.9280    -0.0830     1.0070 o          1 5XW      -0.752000
      2 CAC          3.1380     0.3390    -0.1490 c          1 5XW       0.736000
      3 OAE          4.2460     0.4990    -0.6960 o          1 5XW      -0.752000
      4 CAA          1.8940     0.7370    -0.9640 c3         1 5XW      -0.249700
      5 CAB          0.6360     0.1680    -0.3820 ce         1 5XW       0.472300
      6 CAG          0.5930    -1.3660    -0.2960 c          1 5XW       0.610700
      7 OAI          1.1840    -1.9520    -1.2200 o          1 5XW      -0.734000
      8 OAH         -0.0210    -1.8830     0.6550 o          1 5XW      -0.734000
      9 NAF         -0.2880     0.9730    -0.0520 n2         1 5XW      -0.757900
     10 CAJ         -1.5530     0.5620     0.4920 c3         1 5XW       0.382500
     11 OAN         -2.1650     1.6750     1.1030 oh         1 5XW      -0.694000
     12 CAK         -2.4620     0.0090    -0.6120 c3         1 5XW      -0.245400
     13 CAL         -3.8400    -0.2250    -0.0780 c          1 5XW       0.600900
     14 OAM         -4.8600     0.1710    -0.5880 o          1 5XW      -0.598100
     15 H2           1.8180     1.8280    -0.9800 hc         1 5XW       0.026700
     16 H3           2.0100     0.4120    -2.0000 hc         1 5XW       0.026700
     17 H5          -2.4930     0.6840    -1.4700 hc         1 5XW       0.077700
     18 H6          -2.0730    -0.9570    -0.9480 hc         1 5XW       0.077700
     19 H7          -3.8740    -0.8230     0.8510 h4         1 5XW      -0.024800
     20 H8          -1.4460    -0.1850     1.2790 h2         1 5XW       0.103700
     21 H9          -2.1360     2.4070     0.4760 ho         1 5XW       0.427000
@<TRIPOS>BOND
     1     1     2 1   
     2     2     3 1   
     3     2     4 1   
     4     4     5 1   
     5     4    15 1   
     6     4    16 1   
     7     5     6 1   
     8     5     9 2   
     9     6     7 1   
    10     6     8 1   
    11     9    10 1   
    12    10    11 1   
    13    10    12 1   
    14    10    20 1   
    15    11    21 1   
    16    12    13 1   
    17    12    17 1   
    18    12    18 1   
    19    13    14 2   
    20    13    19 1   
@<TRIPOS>SUBSTRUCTURE
     1 5XW         1 TEMP              0 ****  ****    0 ROOT
