@<TRIPOS>MOLECULE
5XX
   60    64     1     0     0
SMALL
abcg2


@<TRIPOS>ATOM
      1 C10        124.6900   303.3450   174.3850 cc         1 5XX       0.522300
      2 C13        122.7970   306.5860   174.2830 c3         1 5XX      -0.094100
      3 C15        120.6860   306.9070   175.6330 ca         1 5XX      -0.093500
      4 C17        118.5910   305.9240   174.9550 ca         1 5XX      -0.100000
      5 C22        129.2990   301.7330   176.8990 cc         1 5XX       0.680300
      6 C28        127.5140   305.9400   176.1750 c3         1 5XX      -0.107100
      7 C01        127.5560   298.6140   176.9590 c5         1 5XX      -0.115400
      8 C02        128.5880   299.5210   177.6560 c5         1 5XX       0.202800
      9 N03        129.0240   300.4530   176.5940 nh         1 5XX      -0.756300
     10 C04        128.4180   300.0780   175.3120 c5         1 5XX       0.175800
     11 C05        127.0990   299.4340   175.7510 c5         1 5XX       0.218500
     12 N06        126.1390   300.4430   176.2000 nu         1 5XX      -0.918100
     13 C07        125.6790   301.4240   175.3850 cc         1 5XX       0.632300
     14 N08        125.7250   301.3930   174.0810 nd         1 5XX      -0.400000
     15 N09        125.1420   302.5070   173.5090 nd         1 5XX      -0.368000
     16 N11        124.0380   304.5050   174.0250 ns         1 5XX      -0.463400
     17 C12        123.5720   305.4410   174.9010 c          1 5XX       0.608100
     18 C14        121.3150   306.3790   174.5060 ca         1 5XX      -0.095300
     19 C16        119.3320   306.6820   175.8570 ca         1 5XX      -0.108000
     20 C18        119.2120   305.3960   173.8260 ca         1 5XX      -0.108000
     21 C19        120.5660   305.6220   173.6050 ca         1 5XX      -0.093500
     22 O20        123.7300   305.3250   176.1100 o          1 5XX      -0.573100
     23 S21        124.9420   302.8770   176.0470 ss         1 5XX      -0.244800
     24 N23        129.4700   302.1870   178.1270 nd         1 5XX      -0.419000
     25 N24        129.6570   303.5380   178.1660 nd         1 5XX      -0.294000
     26 C25        129.6610   304.1020   177.0050 cc         1 5XX       0.509300
     27 N26        129.8690   305.4660   176.8000 ns         1 5XX      -0.490400
     28 C27        128.9490   306.3960   176.3900 c          1 5XX       0.617100
     29 C29        127.0270   306.2780   174.7870 ca         1 5XX      -0.076300
     30 C30        126.3190   307.4550   174.5490 ca         1 5XX      -0.097000
     31 C31        125.8830   307.7750   173.2680 ca         1 5XX      -0.114500
     32 C32        126.1500   306.9180   172.2050 ca         1 5XX      -0.118000
     33 C33        126.8550   305.7400   172.4330 ca         1 5XX      -0.114500
     34 C34        127.2880   305.4240   173.7150 ca         1 5XX      -0.097000
     35 O35        129.2860   307.5600   176.2270 o          1 5XX      -0.569100
     36 S36        129.4530   302.9760   175.6780 ss         1 5XX      -0.340800
     37 H1         123.1310   307.5000   174.7730 hc         1 5XX       0.075700
     38 H2         123.0180   306.6640   173.2190 hc         1 5XX       0.075700
     39 H3         121.2600   307.4970   176.3360 ha         1 5XX       0.114500
     40 H4         117.5370   305.7500   175.1270 ha         1 5XX       0.116000
     41 H5         126.9190   306.4760   176.9170 hc         1 5XX       0.078700
     42 H6         127.3970   304.8770   176.3720 hc         1 5XX       0.078700
     43 H7         126.7340   298.3470   177.6210 hc         1 5XX       0.071700
     44 H8         128.0230   297.6960   176.6040 hc         1 5XX       0.071700
     45 H9         128.1520   300.0950   178.4740 h1         1 5XX       0.071200
     46 H10        129.4360   298.9610   178.0510 h1         1 5XX       0.071200
     47 H11        129.0400   299.3510   174.7860 h1         1 5XX       0.082200
     48 H12        128.2720   300.9420   174.6690 h1         1 5XX       0.082200
     49 H13        126.6560   298.8280   174.9630 h1         1 5XX       0.101700
     50 H14        126.1270   300.6440   177.1880 hn         1 5XX       0.494000
     51 H15        123.9290   304.6600   173.0320 hn         1 5XX       0.345500
     52 H16        118.8550   307.1000   176.7340 ha         1 5XX       0.116500
     53 H17        118.6410   304.8090   173.1170 ha         1 5XX       0.116500
     54 H18        121.0460   305.2110   172.7240 ha         1 5XX       0.114500
     55 H19        130.7990   305.8270   176.9740 hn         1 5XX       0.341500
     56 H20        126.0970   308.1190   175.3750 ha         1 5XX       0.118500
     57 H21        125.3230   308.6870   173.1030 ha         1 5XX       0.117000
     58 H22        125.8040   307.1610   171.2080 ha         1 5XX       0.113000
     59 H23        127.0560   305.0600   171.6160 ha         1 5XX       0.117000
     60 H24        127.8160   304.4950   173.8850 ha         1 5XX       0.118500
@<TRIPOS>BOND
     1     1    15 2   
     2     1    16 1   
     3     1    23 1   
     4     2    17 1   
     5     2    18 1   
     6     2    37 1   
     7     2    38 1   
     8     3    18 ar  
     9     3    19 ar  
    10     3    39 1   
    11     4    19 ar  
    12     4    20 ar  
    13     4    40 1   
    14     5     9 1   
    15     5    24 2   
    16     5    36 1   
    17     6    28 1   
    18     6    29 1   
    19     6    41 1   
    20     6    42 1   
    21     7     8 1   
    22     7    11 1   
    23     7    43 1   
    24     7    44 1   
    25     8     9 1   
    26     8    45 1   
    27     8    46 1   
    28     9    10 1   
    29    10    11 1   
    30    10    47 1   
    31    10    48 1   
    32    11    12 1   
    33    11    49 1   
    34    12    13 1   
    35    12    50 1   
    36    13    14 2   
    37    13    23 1   
    38    14    15 1   
    39    16    17 1   
    40    16    51 1   
    41    17    22 2   
    42    18    21 ar  
    43    19    52 1   
    44    20    21 ar  
    45    20    53 1   
    46    21    54 1   
    47    24    25 1   
    48    25    26 2   
    49    26    27 1   
    50    26    36 1   
    51    27    28 1   
    52    27    55 1   
    53    28    35 2   
    54    29    30 ar  
    55    29    34 ar  
    56    30    31 ar  
    57    30    56 1   
    58    31    32 ar  
    59    31    57 1   
    60    32    33 ar  
    61    32    58 1   
    62    33    34 ar  
    63    33    59 1   
    64    34    60 1   
@<TRIPOS>SUBSTRUCTURE
     1 5XX         1 TEMP              0 ****  ****    0 ROOT
