@<TRIPOS>MOLECULE
5XX
   60    64     1     0     0
SMALL
No Charge or Current Charge


@<TRIPOS>ATOM
      1 C10        124.4960   303.0560   174.7680 cc         1 5XX       0.522300
      2 C13        122.9240   306.4800   174.4200 c3         1 5XX      -0.094100
      3 C15        120.7510   307.0780   175.6010 ca         1 5XX      -0.093500
      4 C17        118.5840   306.4830   174.6640 ca         1 5XX      -0.100000
      5 C22        129.5110   301.7530   176.7780 cc         1 5XX       0.680300
      6 C28        127.1480   305.9330   176.1690 c3         1 5XX      -0.107100
      7 C01        127.9790   298.5220   176.8650 c5         1 5XX      -0.115400
      8 C02        128.9630   299.5290   177.5370 c5         1 5XX       0.202800
      9 N03        129.3520   300.4230   176.4100 nh         1 5XX      -0.756300
     10 C04        128.5780   300.1280   175.1580 c5         1 5XX       0.175800
     11 C05        127.3460   299.3160   175.6870 c5         1 5XX       0.218500
     12 N06        126.4040   300.2860   176.3350 nu         1 5XX      -0.918100
     13 C07        125.6820   301.2060   175.6240 cc         1 5XX       0.632300
     14 N08        125.4970   301.0990   174.3210 nd         1 5XX      -0.400000
     15 N09        124.8010   302.1840   173.8200 nd         1 5XX      -0.368000
     16 N11        123.8650   304.2210   174.4080 ns         1 5XX      -0.463400
     17 C12        123.5080   305.2910   175.1910 c          1 5XX       0.608100
     18 C14        121.4000   306.4830   174.5020 ca         1 5XX      -0.095300
     19 C16        119.3480   307.0780   175.6820 ca         1 5XX      -0.108000
     20 C18        119.2260   305.8870   173.5650 ca         1 5XX      -0.108000
     21 C19        120.6290   305.8870   173.4840 ca         1 5XX      -0.093500
     22 O20        123.6290   305.3080   176.4070 o          1 5XX      -0.573100
     23 S21        124.9990   302.6010   176.3720 ss         1 5XX      -0.244800
     24 N23        130.2010   302.1000   177.8550 nd         1 5XX      -0.419000
     25 N24        130.2100   303.4700   178.0480 nd         1 5XX      -0.294000
     26 C25        129.4940   304.1050   177.1380 cc         1 5XX       0.509300
     27 N26        129.4240   305.4760   177.1780 ns         1 5XX      -0.490400
     28 C27        128.5820   306.3600   176.5460 c          1 5XX       0.617100
     29 C29        126.7990   306.2360   174.7120 ca         1 5XX      -0.076300
     30 C30        126.3500   307.5230   174.3550 ca         1 5XX      -0.097000
     31 C31        125.9900   307.8100   173.0260 ca         1 5XX      -0.114500
     32 C32        126.0740   306.8110   172.0440 ca         1 5XX      -0.118000
     33 C33        126.5210   305.5260   172.3910 ca         1 5XX      -0.114500
     34 C34        126.8830   305.2400   173.7180 ca         1 5XX      -0.097000
     35 O35        128.9380   307.5230   176.4450 o          1 5XX      -0.569100
     36 S36        128.8590   303.0930   175.8840 ss         1 5XX      -0.340800
     37 H1         123.3150   307.4050   174.8580 hc         1 5XX       0.075700
     38 H2         123.2260   306.4250   173.3680 hc         1 5XX       0.075700
     39 H3         121.3340   307.5390   176.3960 ha         1 5XX       0.114500
     40 H4         117.4980   306.4830   174.7260 ha         1 5XX       0.116000
     41 H5         126.4750   306.5140   176.8100 hc         1 5XX       0.078700
     42 H6         126.9580   304.8870   176.4130 hc         1 5XX       0.078700
     43 H7         127.2380   298.1220   177.5660 hc         1 5XX       0.071700
     44 H8         128.5350   297.6620   176.4740 hc         1 5XX       0.071700
     45 H9         128.4620   300.0800   178.3460 h1         1 5XX       0.071200
     46 H10        129.8300   299.0140   177.9760 h1         1 5XX       0.071200
     47 H11        129.1780   299.4940   174.4910 h1         1 5XX       0.082200
     48 H12        128.2710   300.9920   174.5580 h1         1 5XX       0.082200
     49 H13        126.8770   298.6790   174.9210 h1         1 5XX       0.101700
     50 H14        126.4880   300.5160   177.3200 hn         1 5XX       0.494000
     51 H15        123.6810   304.3340   173.4230 hn         1 5XX       0.345500
     52 H16        118.8520   307.5390   176.5340 ha         1 5XX       0.116500
     53 H17        118.6360   305.4260   172.7760 ha         1 5XX       0.116500
     54 H18        121.1150   305.4220   172.6280 ha         1 5XX       0.114500
     55 H19        130.1610   305.9320   177.6960 hn         1 5XX       0.341500
     56 H20        126.2760   308.3040   175.1080 ha         1 5XX       0.118500
     57 H21        125.6440   308.8070   172.7600 ha         1 5XX       0.117000
     58 H22        125.7940   307.0320   171.0160 ha         1 5XX       0.113000
     59 H23        126.5860   304.7490   171.6320 ha         1 5XX       0.117000
     60 H24        127.2150   304.2370   173.9680 ha         1 5XX       0.118500
@<TRIPOS>BOND
     1     1    15 2   
     2     1    16 1   
     3     1    23 1   
     4     2    17 1   
     5     2    18 1   
     6     2    37 1   
     7     2    38 1   
     8     3    18 ar  
     9     3    19 ar  
    10     3    39 1   
    11     4    19 ar  
    12     4    20 ar  
    13     4    40 1   
    14     5     9 1   
    15     5    24 2   
    16     5    36 1   
    17     6    28 1   
    18     6    29 1   
    19     6    41 1   
    20     6    42 1   
    21     7     8 1   
    22     7    11 1   
    23     7    43 1   
    24     7    44 1   
    25     8     9 1   
    26     8    45 1   
    27     8    46 1   
    28     9    10 1   
    29    10    11 1   
    30    10    47 1   
    31    10    48 1   
    32    11    12 1   
    33    11    49 1   
    34    12    13 1   
    35    12    50 1   
    36    13    14 2   
    37    13    23 1   
    38    14    15 1   
    39    16    17 1   
    40    16    51 1   
    41    17    22 2   
    42    18    21 ar  
    43    19    52 1   
    44    20    21 ar  
    45    20    53 1   
    46    21    54 1   
    47    24    25 1   
    48    25    26 2   
    49    26    27 1   
    50    26    36 1   
    51    27    28 1   
    52    27    55 1   
    53    28    35 2   
    54    29    30 ar  
    55    29    34 ar  
    56    30    31 ar  
    57    30    56 1   
    58    31    32 ar  
    59    31    57 1   
    60    32    33 ar  
    61    32    58 1   
    62    33    34 ar  
    63    33    59 1   
    64    34    60 1   
@<TRIPOS>SUBSTRUCTURE
     1 5XX         1 TEMP              0 ****  ****    0 ROOT
