@<TRIPOS>MOLECULE
5XY
   60    64     1     0     0
SMALL
abcg2


@<TRIPOS>ATOM
      1 C10        119.0680   158.8820    41.8410 c5         1 5XY      -0.100400
      2 N12        119.7200   160.6830    43.1980 nh         1 5XY      -0.786300
      3 C13        118.4980   161.1210    42.5310 c5         1 5XY       0.207800
      4 C17        121.9440   162.5500    45.5140 cc         1 5XY       0.510300
      5 C20        125.1150   163.8450    47.0650 c3         1 5XY      -0.101100
      6 C21        125.1610   165.3510    47.1810 ca         1 5XY      -0.089300
      7 C22        124.2000   166.0280    47.9340 ca         1 5XY      -0.092500
      8 C24        125.1920   168.1450    47.3430 ca         1 5XY      -0.102000
      9 C26        126.1360   166.0880    46.5100 ca         1 5XY      -0.092500
     10 C01        110.4120   163.0910    39.7760 c3         1 5XY      -0.105100
     11 C02        111.7210   162.8710    40.5270 c          1 5XY       0.604100
     12 C04        113.5220   161.2140    40.7200 cc         1 5XY       0.540300
     13 N05        113.8910   161.1960    41.9550 nd         1 5XY      -0.282000
     14 N06        115.1800   160.7660    42.1380 nd         1 5XY      -0.400000
     15 C07        115.7640   160.4240    41.0160 cc         1 5XY       0.687300
     16 N08        117.0020   159.8870    40.9290 nu         1 5XY      -0.904100
     17 C09        117.8620   159.7900    42.0910 c5         1 5XY       0.211500
     18 C11        120.0450   159.2750    42.9450 c5         1 5XY       0.229800
     19 C14        120.4290   161.4810    43.9970 cc         1 5XY       0.712300
     20 N15        120.1530   162.7590    44.2080 nd         1 5XY      -0.420000
     21 N16        121.0280   163.3420    45.0730 nd         1 5XY      -0.274000
     22 C23        124.2150   167.4160    48.0150 ca         1 5XY      -0.108000
     23 C25        126.1540   167.4770    46.5920 ca         1 5XY      -0.108000
     24 O27        124.4180   163.5600    44.7750 o          1 5XY      -0.558100
     25 S28        121.8300   160.9160    44.8830 ss         1 5XY      -0.370800
     26 S29        114.7600   160.6620    39.6020 ss         1 5XY      -0.389800
     27 O30        112.2250   163.6840    41.2770 o          1 5XY      -0.518100
     28 C31        109.7330   164.3850    40.1200 ca         1 5XY      -0.077300
     29 C32        108.8160   164.4480    41.1690 ca         1 5XY      -0.090500
     30 C33        108.2020   165.6500    41.5040 ca         1 5XY      -0.108000
     31 C34        108.5000   166.8080    40.7910 ca         1 5XY      -0.101000
     32 C35        109.4130   166.7540    39.7420 ca         1 5XY      -0.108000
     33 C36        110.0230   165.5490    39.4100 ca         1 5XY      -0.090500
     34 H1         118.8090   157.8260    41.8710 hc         1 5XY       0.064200
     35 H2         119.4970   159.1090    40.8620 hc         1 5XY       0.064200
     36 H3         118.7260   161.7460    41.6620 h1         1 5XY       0.077700
     37 H4         117.8670   161.6890    43.2120 h1         1 5XY       0.077700
     38 H5         124.8160   163.4000    48.0140 hc         1 5XY       0.067200
     39 H6         126.0970   163.4570    46.7960 hc         1 5XY       0.067200
     40 H7         123.4390   165.4640    48.4600 ha         1 5XY       0.113000
     41 H8         125.2060   169.2260    47.4080 ha         1 5XY       0.114000
     42 H9         126.8860   165.5700    45.9250 ha         1 5XY       0.113000
     43 H10        109.7580   162.2410    39.9870 hc         1 5XY       0.065200
     44 H11        110.6440   163.0480    38.7080 hc         1 5XY       0.065200
     45 H12        111.8390   161.0750    39.5500 hn         1 5XY       0.328500
     46 H13        117.4540   159.9080    40.0280 hn         1 5XY       0.494000
     47 H14        117.2660   159.3950    42.9150 h1         1 5XY       0.096700
     48 H15        119.8910   158.6840    43.8530 h1         1 5XY       0.059200
     49 H16        121.0870   159.1700    42.6380 h1         1 5XY       0.059200
     50 H17        122.8120   162.8020    47.3860 hn         1 5XY       0.333500
     51 H18        123.4650   167.9290    48.6050 ha         1 5XY       0.115000
     52 H19        126.9200   168.0370    46.0690 ha         1 5XY       0.115000
     53 H20        108.5800   163.5480    41.7250 ha         1 5XY       0.111000
     54 H21        107.4900   165.6830    42.3200 ha         1 5XY       0.114500
     55 H22        108.0220   167.7440    41.0490 ha         1 5XY       0.114000
     56 H23        109.6470   167.6500    39.1800 ha         1 5XY       0.114500
     57 H24        110.7330   165.5110    38.5910 ha         1 5XY       0.111000
     58 N18        122.9570   162.9360    46.3960 ns         1 5XY      -0.490400
     59 N03        112.2850   161.6440    40.2560 ns         1 5XY      -0.496400
     60 C19        124.1550   163.4320    45.9610 c          1 5XY       0.608100
@<TRIPOS>BOND
     1     1    17 1   
     2     1    18 1   
     3     1    34 1   
     4     1    35 1   
     5     2     3 1   
     6     2    18 1   
     7     2    19 1   
     8     3    17 1   
     9     3    36 1   
    10     3    37 1   
    11     4    21 2   
    12     4    25 1   
    13     4    58 1   
    14     5     6 1   
    15     5    38 1   
    16     5    39 1   
    17     5    60 1   
    18     6     7 ar  
    19     6     9 ar  
    20     7    22 ar  
    21     7    40 1   
    22     8    22 ar  
    23     8    23 ar  
    24     8    41 1   
    25     9    23 ar  
    26     9    42 1   
    27    10    11 1   
    28    10    28 1   
    29    10    43 1   
    30    10    44 1   
    31    11    27 2   
    32    11    59 1   
    33    12    13 2   
    34    12    26 1   
    35    12    59 1   
    36    13    14 1   
    37    14    15 2   
    38    15    16 1   
    39    15    26 1   
    40    16    17 1   
    41    16    46 1   
    42    17    47 1   
    43    18    48 1   
    44    18    49 1   
    45    19    20 2   
    46    19    25 1   
    47    20    21 1   
    48    22    51 1   
    49    23    52 1   
    50    24    60 2   
    51    28    29 ar  
    52    28    33 ar  
    53    29    30 ar  
    54    29    53 1   
    55    30    31 ar  
    56    30    54 1   
    57    31    32 ar  
    58    31    55 1   
    59    32    33 ar  
    60    32    56 1   
    61    33    57 1   
    62    45    59 1   
    63    50    58 1   
    64    58    60 1   
@<TRIPOS>SUBSTRUCTURE
     1 5XY         1 TEMP              0 ****  ****    0 ROOT
