@<TRIPOS>MOLECULE
5XY
   60    64     1     0     0
SMALL
No Charge or Current Charge


@<TRIPOS>ATOM
      1 C10        119.2850   160.4260    41.1180 c5         1 5XY      -0.100400
      2 N12        119.8710   162.2580    42.4430 nh         1 5XY      -0.786300
      3 C13        118.4120   162.4280    42.1500 c5         1 5XY       0.207800
      4 C17        121.5720   163.5600    45.5120 cc         1 5XY       0.510300
      5 C20        124.1950   163.8850    48.2280 c3         1 5XY      -0.101100
      6 C21        125.3410   164.8140    47.8360 ca         1 5XY      -0.089300
      7 C22        125.1040   166.1860    47.6180 ca         1 5XY      -0.092500
      8 C24        127.4590   166.5250    47.1000 ca         1 5XY      -0.102000
      9 C26        126.6460   164.3050    47.6820 ca         1 5XY      -0.092500
     10 C01        109.5640   161.8460    40.5430 c3         1 5XY      -0.105100
     11 C02        110.9030   161.7870    41.2890 c          1 5XY       0.604100
     12 C04        113.3190   161.4440    40.8400 cc         1 5XY       0.540300
     13 N05        113.7840   161.5820    42.0740 nd         1 5XY      -0.282000
     14 N06        115.1590   161.4400    42.1240 nd         1 5XY      -0.400000
     15 C07        115.6540   161.2000    40.9250 cc         1 5XY       0.687300
     16 N08        116.9900   161.0280    40.7060 nu         1 5XY      -0.904100
     17 C09        117.9990   160.9600    41.7990 c5         1 5XY       0.211500
     18 C11        120.3550   160.8850    42.1420 c5         1 5XY       0.229800
     19 C14        120.3480   162.8300    43.6120 cc         1 5XY       0.712300
     20 N15        119.7770   163.8680    44.2020 nd         1 5XY      -0.420000
     21 N16        120.4820   164.2810    45.3170 nd         1 5XY      -0.274000
     22 C23        126.1600   167.0380    47.2520 ca         1 5XY      -0.108000
     23 C25        127.7020   165.1580    47.3150 ca         1 5XY      -0.108000
     24 O27        124.0670   162.3140    46.4030 o          1 5XY      -0.558100
     25 S28        121.8350   162.3060    44.3390 ss         1 5XY      -0.370800
     26 S29        114.5210   161.1280    39.6320 ss         1 5XY      -0.389800
     27 O30        110.9750   161.9680    42.4960 o          1 5XY      -0.518100
     28 C31        109.1390   163.2930    40.3120 ca         1 5XY      -0.077300
     29 C32        108.3750   163.9710    41.2810 ca         1 5XY      -0.090500
     30 C33        107.9870   165.3060    41.0720 ca         1 5XY      -0.108000
     31 C34        108.3620   165.9710    39.8930 ca         1 5XY      -0.101000
     32 C35        109.1250   165.3000    38.9220 ca         1 5XY      -0.108000
     33 C36        109.5120   163.9650    39.1310 ca         1 5XY      -0.090500
     34 H1         119.2760   159.3400    40.9810 hc         1 5XY       0.064200
     35 H2         119.4690   160.8880    40.1400 hc         1 5XY       0.064200
     36 H3         118.2670   163.1080    41.2990 h1         1 5XY       0.077700
     37 H4         117.8150   162.8060    42.9910 h1         1 5XY       0.077700
     38 H5         123.4460   164.4590    48.7860 hc         1 5XY       0.067200
     39 H6         124.5790   163.0810    48.8670 hc         1 5XY       0.067200
     40 H7         124.1020   166.5950    47.7320 ha         1 5XY       0.113000
     41 H8         128.2760   167.1850    46.8160 ha         1 5XY       0.114000
     42 H9         126.8430   163.2470    47.8430 ha         1 5XY       0.113000
     43 H10        108.8050   161.3340    41.1450 hc         1 5XY       0.065200
     44 H11        109.6540   161.3410    39.5740 hc         1 5XY       0.065200
     45 H12        111.7810   161.4110    39.5090 hn         1 5XY       0.328500
     46 H13        117.2200   160.7890    39.7440 hn         1 5XY       0.494000
     47 H14        117.7050   160.3730    42.6840 h1         1 5XY       0.096700
     48 H15        120.3510   160.2410    43.0330 h1         1 5XY       0.059200
     49 H16        121.3650   160.8780    41.7080 h1         1 5XY       0.059200
     50 H17        122.0800   164.6240    47.1640 hn         1 5XY       0.333500
     51 H18        125.9710   168.0960    47.0850 ha         1 5XY       0.115000
     52 H19        128.7070   164.7580    47.1970 ha         1 5XY       0.115000
     53 H20        108.0820   163.4660    42.1990 ha         1 5XY       0.111000
     54 H21        107.3970   165.8250    41.8250 ha         1 5XY       0.114500
     55 H22        108.0620   167.0050    39.7310 ha         1 5XY       0.114000
     56 H23        109.4160   165.8140    38.0090 ha         1 5XY       0.114500
     57 H24        110.1040   163.4560    38.3730 ha         1 5XY       0.111000
     58 N18        122.3800   163.8530    46.5850 ns         1 5XY      -0.490400
     59 N03        111.9930   161.5350    40.4880 ns         1 5XY      -0.496400
     60 C19        123.5530   163.2570    46.9840 c          1 5XY       0.608100
@<TRIPOS>BOND
     1     1    17 1   
     2     1    18 1   
     3     1    34 1   
     4     1    35 1   
     5     2     3 1   
     6     2    18 1   
     7     2    19 1   
     8     3    17 1   
     9     3    36 1   
    10     3    37 1   
    11     4    21 2   
    12     4    25 1   
    13     4    58 1   
    14     5     6 1   
    15     5    38 1   
    16     5    39 1   
    17     5    60 1   
    18     6     7 ar  
    19     6     9 ar  
    20     7    22 ar  
    21     7    40 1   
    22     8    22 ar  
    23     8    23 ar  
    24     8    41 1   
    25     9    23 ar  
    26     9    42 1   
    27    10    11 1   
    28    10    28 1   
    29    10    43 1   
    30    10    44 1   
    31    11    27 2   
    32    11    59 1   
    33    12    13 2   
    34    12    26 1   
    35    12    59 1   
    36    13    14 1   
    37    14    15 2   
    38    15    16 1   
    39    15    26 1   
    40    16    17 1   
    41    16    46 1   
    42    17    47 1   
    43    18    48 1   
    44    18    49 1   
    45    19    20 2   
    46    19    25 1   
    47    20    21 1   
    48    22    51 1   
    49    23    52 1   
    50    24    60 2   
    51    28    29 ar  
    52    28    33 ar  
    53    29    30 ar  
    54    29    53 1   
    55    30    31 ar  
    56    30    54 1   
    57    31    32 ar  
    58    31    55 1   
    59    32    33 ar  
    60    32    56 1   
    61    33    57 1   
    62    45    59 1   
    63    50    58 1   
    64    58    60 1   
@<TRIPOS>SUBSTRUCTURE
     1 5XY         1 TEMP              0 ****  ****    0 ROOT
