@<TRIPOS>MOLECULE
5Y0
   40    41     1     0     0
SMALL
bcc


@<TRIPOS>ATOM
      1 C13         -0.1150    -0.6640     0.2810 ca         1 5Y0       0.149600
      2 C14          0.2550    -0.3480    -1.0240 ca         1 5Y0      -0.164000
      3 C15          0.2160     0.9580    -1.4900 ca         1 5Y0      -0.091000
      4 C16         -0.2130     1.9710    -0.6470 ca         1 5Y0       0.044900
      5 C17         -0.5920     1.6920     0.6600 ca         1 5Y0      -0.115000
      6 C18         -0.5260     0.3880     1.0970 ca         1 5Y0       0.112900
      7 N9          -0.1050    -1.9600     0.7780 nu         1 5Y0      -0.647000
      8 C5           0.7490    -2.9450     0.3210 ca         1 5Y0       0.202600
      9 C6           2.1230    -2.7280     0.1320 ca         1 5Y0      -0.191600
     10 C1           2.9280    -3.7480    -0.3610 ca         1 5Y0      -0.066000
     11 C2           2.4130    -5.0050    -0.6400 ca         1 5Y0      -0.180000
     12 C3           1.0690    -5.2210    -0.4280 ca         1 5Y0       0.150900
     13 C4           0.2470    -4.2080     0.0270 ca         1 5Y0       0.028900
     14 C10          2.7520    -1.4540     0.5980 c          1 5Y0       0.689700
     15 N12          3.4970    -0.8520    -0.3430 ns         1 5Y0      -0.457400
     16 O11          2.6100    -1.0250     1.7280 o          1 5Y0      -0.547100
     17 O21          4.2310     0.2440    -0.0300 os         1 5Y0      -0.169900
     18 C22          3.4830     1.4460    -0.2130 c3         1 5Y0       0.059400
     19 C24          3.5630     3.8900     0.1890 c3         1 5Y0       0.105400
     20 O26          5.5380     2.6880    -0.5860 oh         1 5Y0      -0.563800
     21 O23          4.3680     4.9350     0.6760 oh         1 5Y0      -0.579800
     22 C25          4.3750     2.6040     0.2000 c3         1 5Y0       0.143100
     23 I20         -0.3070     3.9470    -1.3480 i          1 5Y0      -0.162900
     24 F19         -0.8890     0.1060     2.3560 f          1 5Y0      -0.127900
     25 F7          -1.0590    -4.4440     0.1830 f          1 5Y0      -0.123900
     26 F8           0.5250    -6.4120    -0.6840 f          1 5Y0      -0.116900
     27 H17         -0.9240     2.4640     1.3410 ha         1 5Y0       0.166000
     28 H14          0.5660    -1.1350    -1.6990 ha         1 5Y0       0.144000
     29 H9          -0.9020    -2.2500     1.3220 hn         1 5Y0       0.467800
     30 H15          0.5080     1.1610    -2.5100 ha         1 5Y0       0.149000
     31 H242         3.2140     4.0910    -0.8350 h1         1 5Y0       0.022700
     32 H25          4.7170     2.4240     1.2250 h1         1 5Y0       0.106700
     33 H23          3.8650     5.7520     0.6110 ho         1 5Y0       0.405000
     34 H1           3.9880    -3.5790    -0.4920 ha         1 5Y0       0.151000
     35 H2           3.0460    -5.8050    -0.9980 ha         1 5Y0       0.163000
     36 H12          3.5800    -1.1860    -1.2940 hn         1 5Y0       0.341500
     37 H221         3.1790     1.5470    -1.2620 h1         1 5Y0       0.042200
     38 H222         2.5800     1.4290     0.4050 h1         1 5Y0       0.042200
     39 H26          5.2850     2.9180    -1.4870 ho         1 5Y0       0.394000
     40 H241         2.6650     3.7460     0.8050 h1         1 5Y0       0.022700
@<TRIPOS>BOND
     1     1     2 ar  
     2     1     6 ar  
     3     1     7 1   
     4     2     3 ar  
     5     2    28 1   
     6     3     4 ar  
     7     3    30 1   
     8     4     5 ar  
     9     4    23 1   
    10     5     6 ar  
    11     5    27 1   
    12     6    24 1   
    13     7     8 1   
    14     7    29 1   
    15     8     9 ar  
    16     8    13 ar  
    17     9    10 ar  
    18     9    14 1   
    19    10    11 ar  
    20    10    34 1   
    21    11    12 ar  
    22    11    35 1   
    23    12    13 ar  
    24    12    26 1   
    25    13    25 1   
    26    14    15 1   
    27    14    16 2   
    28    15    17 1   
    29    15    36 1   
    30    17    18 1   
    31    18    22 1   
    32    18    37 1   
    33    18    38 1   
    34    19    21 1   
    35    19    22 1   
    36    19    31 1   
    37    19    40 1   
    38    20    22 1   
    39    20    39 1   
    40    21    33 1   
    41    22    32 1   
@<TRIPOS>SUBSTRUCTURE
     1 5Y0         1 TEMP              0 ****  ****    0 ROOT
