@<TRIPOS>MOLECULE
5Y0
   40    41     1     0     0
SMALL
No Charge or Current Charge


@<TRIPOS>ATOM
      1 C13         -0.1980    -0.6020     0.3900 ca         1 5Y0       0.288000
      2 C14          0.3740    -0.1450    -0.8150 ca         1 5Y0      -0.146000
      3 C15          0.2900     1.2130    -1.1750 ca         1 5Y0      -0.073000
      4 C16         -0.3660     2.1250    -0.3330 ca         1 5Y0       0.182000
      5 C17         -0.9580     1.6830     0.8590 ca         1 5Y0      -0.097000
      6 C18         -0.8830     0.3260     1.2160 ca         1 5Y0       0.148000
      7 N9          -0.1060    -1.9610     0.7370 nu         1 5Y0      -0.979000
      8 C5           0.7480    -2.9970     0.3190 ca         1 5Y0       0.341000
      9 C6           2.1470    -2.8090     0.1820 ca         1 5Y0      -0.191600
     10 C1           2.9390    -3.8580    -0.3450 ca         1 5Y0      -0.048000
     11 C2           2.3570    -5.0860    -0.6950 ca         1 5Y0      -0.162000
     12 C3           0.9840    -5.2840    -0.5160 ca         1 5Y0       0.186000
     13 C4           0.1790    -4.2510    -0.0100 ca         1 5Y0       0.064000
     14 C10          2.8280    -1.5460     0.6390 c          1 5Y0       0.622700
     15 N12          3.8400    -1.0930    -0.1950 ns         1 5Y0      -0.390400
     16 O11          2.5770    -0.9990     1.7060 o          1 5Y0      -0.547100
     17 O21          4.4770     0.1630     0.1100 os         1 5Y0      -0.193100
     18 C22          3.6730     1.2820    -0.3100 c3         1 5Y0       0.082600
     19 C24          3.5260     3.8400    -0.2060 c3         1 5Y0       0.128600
     20 O26          5.6070     2.7220    -0.7780 oh         1 5Y0      -0.626000
     21 O23          4.2710     5.0430     0.0500 oh         1 5Y0      -0.642000
     22 C25          4.4200     2.5950     0.0270 c3         1 5Y0       0.166300
     23 I20         -0.4650     4.2150    -0.8800 i          1 5Y0      -0.300000
     24 F19         -1.4640    -0.0830     2.3700 f          1 5Y0      -0.163000
     25 F7          -1.1560    -4.4580     0.1330 f          1 5Y0      -0.159000
     26 F8           0.4360    -6.4770    -0.8450 f          1 5Y0      -0.152000
     27 H17         -1.4730     2.3880     1.5050 ha         1 5Y0       0.148000
     28 H14          0.8760    -0.8420    -1.4800 ha         1 5Y0       0.126000
     29 H9          -0.8770    -2.2840     1.3260 hn         1 5Y0       0.523000
     30 H15          0.7350     1.5600    -2.1040 ha         1 5Y0       0.131000
     31 H242         3.1540     3.8350    -1.2400 h1         1 5Y0       0.022700
     32 H25          4.6810     2.5700     1.0950 h1         1 5Y0       0.106700
     33 H23          3.6510     5.7980    -0.0630 ho         1 5Y0       0.444000
     34 H1           4.0170    -3.7410    -0.4490 ha         1 5Y0       0.133000
     35 H2           2.9740    -5.8910    -1.0880 ha         1 5Y0       0.145000
     36 H12          4.0370    -1.5020    -1.1030 hn         1 5Y0       0.341500
     37 H221         3.4710     1.2370    -1.3880 h1         1 5Y0       0.042200
     38 H222         2.7120     1.2790     0.2210 h1         1 5Y0       0.042200
     39 H26          5.8150     3.6840    -0.7650 ho         1 5Y0       0.433000
     40 H241         2.6550     3.7850     0.4600 h1         1 5Y0       0.022700
@<TRIPOS>BOND
     1     1     2 ar  
     2     1     6 ar  
     3     1     7 1   
     4     2     3 ar  
     5     2    28 1   
     6     3     4 ar  
     7     3    30 1   
     8     4     5 ar  
     9     4    23 1   
    10     5     6 ar  
    11     5    27 1   
    12     6    24 1   
    13     7     8 1   
    14     7    29 1   
    15     8     9 ar  
    16     8    13 ar  
    17     9    10 ar  
    18     9    14 1   
    19    10    11 ar  
    20    10    34 1   
    21    11    12 ar  
    22    11    35 1   
    23    12    13 ar  
    24    12    26 1   
    25    13    25 1   
    26    14    15 1   
    27    14    16 2   
    28    15    17 1   
    29    15    36 1   
    30    17    18 1   
    31    18    22 1   
    32    18    37 1   
    33    18    38 1   
    34    19    21 1   
    35    19    22 1   
    36    19    31 1   
    37    19    40 1   
    38    20    22 1   
    39    20    39 1   
    40    21    33 1   
    41    22    32 1   
@<TRIPOS>SUBSTRUCTURE
     1 5Y0         1 TEMP              0 ****  ****    0 ROOT
