@<TRIPOS>MOLECULE
5Y1
   54    57     1     0     0
SMALL
No Charge or Current Charge


@<TRIPOS>ATOM
      1 C6          10.6960    39.9410   -10.9340 ca         1 5Y1       0.146100
      2 C4          12.2290    41.6140   -11.8640 ca         1 5Y1      -0.049300
      3 C3          12.8190    42.3850   -13.0470 c3         1 5Y1      -0.051100
      4 C2          13.2580    41.5240   -14.2520 c3         1 5Y1       0.119000
      5 C1          14.7920    41.9330   -16.2720 c          1 5Y1       0.519800
      6 C10         14.8160    40.4600   -16.7290 ce         1 5Y1       0.408300
      7 C11         13.9300    38.2630   -16.9160 cf         1 5Y1       0.744900
      8 C12         12.7580    37.3900   -16.6230 ca         1 5Y1      -0.123900
      9 C13         12.8160    35.9970   -16.8790 ca         1 5Y1      -0.078000
     10 C14         11.7250    35.1640   -16.5850 ca         1 5Y1      -0.095000
     11 C15         10.5530    35.7080   -16.0390 ca         1 5Y1      -0.109000
     12 C16         10.4570    37.0860   -15.8010 ca         1 5Y1       0.122100
     13 C17          8.8450    38.9230   -15.3640 c3         1 5Y1       0.164600
     14 C18          7.7270    39.1340   -14.3180 c3         1 5Y1      -0.079400
     15 C19          8.2490    39.4820   -12.8980 c3         1 5Y1      -0.109400
     16 C20          9.2570    38.4570   -12.3130 c3         1 5Y1       0.162600
     17 C21         11.5580    37.9240   -16.0860 ca         1 5Y1      -0.142000
     18 C22         15.8870    40.1290   -17.7960 c6         1 5Y1      -0.024000
     19 C23         15.9620    38.5990   -18.0260 c          1 5Y1       0.693500
     20 C5          11.2850    40.5830   -12.0500 ca         1 5Y1      -0.194000
     21 C7          11.0760    40.3210    -9.6380 ca         1 5Y1      -0.139000
     22 C8          12.0240    41.3370    -9.4450 ca         1 5Y1      -0.072000
     23 C9          12.5910    41.9850   -10.5540 ca         1 5Y1      -0.140000
     24 N1          13.9830    42.3520   -15.2250 ns         1 5Y1      -0.473900
     25 N2          13.9680    39.5310   -16.3310 nf         1 5Y1      -0.697000
     26 N3          14.8660    37.8380   -17.6880 ne         1 5Y1      -0.669100
     27 O1          15.4870    42.7940   -16.8050 o          1 5Y1      -0.622100
     28 O2           9.2860    37.5560   -15.2450 os         1 5Y1      -0.370100
     29 O3           9.7480    38.9400   -11.0470 os         1 5Y1      -0.355100
     30 O4          17.1970    40.7030   -17.4760 oh         1 5Y1      -0.614000
     31 O5          16.9640    38.0870   -18.5040 o          1 5Y1      -0.444100
     32 H1          13.6900    42.9580   -12.7070 hc         1 5Y1       0.056200
     33 H2          12.0880    43.1250   -13.3940 hc         1 5Y1       0.056200
     34 H3          12.3790    41.0800   -14.7380 h1         1 5Y1       0.062200
     35 H4          13.9170    40.7200   -13.9000 h1         1 5Y1       0.062200
     36 H5          13.7170    35.5470   -17.2940 ha         1 5Y1       0.146000
     37 H6          11.7900    34.0950   -16.7760 ha         1 5Y1       0.125000
     38 H7           9.7110    35.0610   -15.8050 ha         1 5Y1       0.131000
     39 H8           9.6460    39.6440   -15.1650 h1         1 5Y1       0.040200
     40 H9           8.4540    39.1050   -16.3730 h1         1 5Y1       0.040200
     41 H10          7.0860    39.9570   -14.6580 hc         1 5Y1       0.061200
     42 H11          7.0890    38.2430   -14.2750 hc         1 5Y1       0.061200
     43 H12          8.7020    40.4790   -12.9320 hc         1 5Y1       0.053700
     44 H13          7.3920    39.5580   -12.2170 hc         1 5Y1       0.053700
     45 H14          8.7400    37.4990   -12.1730 h1         1 5Y1       0.062200
     46 H15         10.0940    38.2780   -12.9980 h1         1 5Y1       0.062200
     47 H16         11.4980    38.9880   -15.8840 ha         1 5Y1       0.133000
     48 H17         15.5220    40.5320   -18.7520 h1         1 5Y1       0.081700
     49 H18         11.0060    40.3050   -13.0600 ha         1 5Y1       0.113000
     50 H19         10.6290    39.8270    -8.7790 ha         1 5Y1       0.130000
     51 H20         12.3110    41.6310    -8.4370 ha         1 5Y1       0.118000
     52 H21         13.3100    42.7850   -10.3900 ha         1 5Y1       0.115000
     53 H22         14.0180    43.3490   -15.0470 hn         1 5Y1       0.324500
     54 H23         17.0600    41.6760   -17.3490 ho         1 5Y1       0.481000
@<TRIPOS>BOND
     1     1    20 ar  
     2     1    21 ar  
     3     1    29 1   
     4     2     3 1   
     5     2    20 ar  
     6     2    23 ar  
     7     3     4 1   
     8     3    32 1   
     9     3    33 1   
    10     4    24 1   
    11     4    34 1   
    12     4    35 1   
    13     5     6 1   
    14     5    24 1   
    15     5    27 2   
    16     6    18 1   
    17     6    25 2   
    18     7     8 1   
    19     7    25 1   
    20     7    26 2   
    21     8     9 ar  
    22     8    17 ar  
    23     9    10 ar  
    24     9    36 1   
    25    10    11 ar  
    26    10    37 1   
    27    11    12 ar  
    28    11    38 1   
    29    12    17 ar  
    30    12    28 1   
    31    13    14 1   
    32    13    28 1   
    33    13    39 1   
    34    13    40 1   
    35    14    15 1   
    36    14    41 1   
    37    14    42 1   
    38    15    16 1   
    39    15    43 1   
    40    15    44 1   
    41    16    29 1   
    42    16    45 1   
    43    16    46 1   
    44    17    47 1   
    45    18    19 1   
    46    18    30 1   
    47    18    48 1   
    48    19    26 1   
    49    19    31 2   
    50    20    49 1   
    51    21    22 ar  
    52    21    50 1   
    53    22    23 ar  
    54    22    51 1   
    55    23    52 1   
    56    24    53 1   
    57    30    54 1   
@<TRIPOS>SUBSTRUCTURE
     1 5Y1         1 TEMP              0 ****  ****    0 ROOT
