@<TRIPOS>MOLECULE
5Y1
   54    57     1     0     0
SMALL
abcg2


@<TRIPOS>ATOM
      1 C6          10.7240    39.9210   -11.0230 ca         1 5Y1       0.146100
      2 C4          12.3390    41.5200   -11.8690 ca         1 5Y1      -0.049300
      3 C3          12.9130    42.3160   -13.0170 c3         1 5Y1      -0.051100
      4 C2          13.3050    41.4450   -14.2070 c3         1 5Y1       0.119000
      5 C1          14.4350    41.9510   -16.4190 c          1 5Y1       0.519800
      6 C10         14.5950    40.4890   -16.7660 ce         1 5Y1       0.408300
      7 C11         13.9040    38.2940   -16.7750 cf         1 5Y1       0.744900
      8 C12         12.7470    37.4270   -16.5340 ca         1 5Y1      -0.123900
      9 C13         12.8550    36.0450   -16.7240 ca         1 5Y1      -0.078000
     10 C14         11.7660    35.2340   -16.4450 ca         1 5Y1      -0.095000
     11 C15         10.5750    35.7820   -15.9890 ca         1 5Y1      -0.109000
     12 C16         10.4550    37.1640   -15.8120 ca         1 5Y1       0.122100
     13 C17          8.8760    38.9770   -15.4410 c3         1 5Y1       0.164600
     14 C18          7.7630    39.2340   -14.4380 c3         1 5Y1      -0.079400
     15 C19          8.2600    39.6180   -13.0390 c3         1 5Y1      -0.109400
     16 C20          9.2590    38.6310   -12.4510 c3         1 5Y1       0.162600
     17 C21         11.5410    37.9880   -16.0870 ca         1 5Y1      -0.142000
     18 C22         15.7380    40.1110   -17.6830 c6         1 5Y1      -0.024000
     19 C23         16.0910    38.6530   -17.4410 c          1 5Y1       0.693500
     20 C5          11.2890    40.6220   -12.0870 ca         1 5Y1      -0.194000
     21 C7          11.2090    40.1210    -9.7260 ca         1 5Y1      -0.139000
     22 C8          12.2540    41.0050    -9.5130 ca         1 5Y1      -0.072000
     23 C9          12.8250    41.7010   -10.5770 ca         1 5Y1      -0.140000
     24 N1          13.8390    42.2950   -15.2770 ns         1 5Y1      -0.473900
     25 N2          13.7180    39.6440   -16.3980 nf         1 5Y1      -0.697000
     26 N3          15.0180    37.8010   -17.2150 ne         1 5Y1      -0.669100
     27 O1          14.8610    42.7760   -17.2400 o          1 5Y1      -0.622100
     28 O2           9.2640    37.5950   -15.3200 os         1 5Y1      -0.370100
     29 O3           9.7040    39.0260   -11.1420 os         1 5Y1      -0.355100
     30 O4          16.8700    40.9310   -17.6010 oh         1 5Y1      -0.614000
     31 O5          17.2290    38.2390   -17.4920 o          1 5Y1      -0.444100
     32 H1          13.7840    42.8750   -12.6690 hc         1 5Y1       0.056200
     33 H2          12.1740    43.0510   -13.3540 hc         1 5Y1       0.056200
     34 H3          12.4440    40.8960   -14.5770 h1         1 5Y1       0.062200
     35 H4          14.0590    40.7160   -13.9090 h1         1 5Y1       0.062200
     36 H5          13.7880    35.6240   -17.0690 ha         1 5Y1       0.146000
     37 H6          11.8420    34.1620   -16.5790 ha         1 5Y1       0.125000
     38 H7           9.7240    35.1530   -15.7630 ha         1 5Y1       0.131000
     39 H8           9.7220    39.6370   -15.2430 h1         1 5Y1       0.040200
     40 H9           8.5430    39.1430   -16.4690 h1         1 5Y1       0.040200
     41 H10          7.1400    40.0470   -14.8170 hc         1 5Y1       0.061200
     42 H11          7.1280    38.3450   -14.3950 hc         1 5Y1       0.061200
     43 H12          8.7160    40.6090   -13.0880 hc         1 5Y1       0.053700
     44 H13          7.4070    39.6960   -12.3600 hc         1 5Y1       0.053700
     45 H14          8.7940    37.6560   -12.3050 h1         1 5Y1       0.062200
     46 H15         10.1280    38.4940   -13.0950 h1         1 5Y1       0.062200
     47 H16         11.4880    39.0540   -15.9470 ha         1 5Y1       0.133000
     48 H17         15.2990    40.1240   -18.6980 h1         1 5Y1       0.081700
     49 H18         10.9130    40.4900   -13.0890 ha         1 5Y1       0.113000
     50 H19         10.7620    39.5710    -8.9080 ha         1 5Y1       0.130000
     51 H20         12.6320    41.1500    -8.5080 ha         1 5Y1       0.118000
     52 H21         13.6410    42.3910   -10.4010 ha         1 5Y1       0.115000
     53 H22         13.7580    43.2950   -15.1450 hn         1 5Y1       0.324500
     54 H23         16.5500    41.8430   -17.7150 ho         1 5Y1       0.481000
@<TRIPOS>BOND
     1     1    20 ar  
     2     1    21 ar  
     3     1    29 1   
     4     2     3 1   
     5     2    20 ar  
     6     2    23 ar  
     7     3     4 1   
     8     3    32 1   
     9     3    33 1   
    10     4    24 1   
    11     4    34 1   
    12     4    35 1   
    13     5     6 1   
    14     5    24 1   
    15     5    27 2   
    16     6    18 1   
    17     6    25 2   
    18     7     8 1   
    19     7    25 1   
    20     7    26 2   
    21     8     9 ar  
    22     8    17 ar  
    23     9    10 ar  
    24     9    36 1   
    25    10    11 ar  
    26    10    37 1   
    27    11    12 ar  
    28    11    38 1   
    29    12    17 ar  
    30    12    28 1   
    31    13    14 1   
    32    13    28 1   
    33    13    39 1   
    34    13    40 1   
    35    14    15 1   
    36    14    41 1   
    37    14    42 1   
    38    15    16 1   
    39    15    43 1   
    40    15    44 1   
    41    16    29 1   
    42    16    45 1   
    43    16    46 1   
    44    17    47 1   
    45    18    19 1   
    46    18    30 1   
    47    18    48 1   
    48    19    26 1   
    49    19    31 2   
    50    20    49 1   
    51    21    22 ar  
    52    21    50 1   
    53    22    23 ar  
    54    22    51 1   
    55    23    52 1   
    56    24    53 1   
    57    30    54 1   
@<TRIPOS>SUBSTRUCTURE
     1 5Y1         1 TEMP              0 ****  ****    0 ROOT
