@<TRIPOS>MOLECULE
5Y2
   46    49     1     0     0
SMALL
bcc


@<TRIPOS>ATOM
      1 C1           4.0430    -1.1270     0.5990 ca         1 5Y2      -0.137300
      2 C2           2.9010    -1.8070     0.9980 ca         1 5Y2      -0.086000
      3 C3           1.6280    -1.2680     0.8940 ca         1 5Y2      -0.140000
      4 N6          -4.4390     1.3480    -0.4630 nu         1 5Y2      -0.734600
      5 C7           5.2530     2.1780    -0.3540 c          1 5Y2       0.675100
      6 C8           6.6190     2.5830    -0.8440 c3         1 5Y2      -0.182100
      7 C9          -0.9950     0.1630     0.0530 cc         1 5Y2       0.766200
      8 C10         -2.0510     1.0880    -0.1210 cc         1 5Y2      -0.469300
      9 C11         -3.3340     0.6190    -0.2990 cd         1 5Y2       0.349300
     10 C12         -2.4080    -1.5760    -0.1260 cd         1 5Y2       0.516500
     11 C13         -2.9620    -2.8610    -0.1920 cc         1 5Y2      -0.263300
     12 C14         -4.3410    -2.6550    -0.4060 cc         1 5Y2       0.460500
     13 C15         -2.2640    -4.0710    -0.0700 cg         1 5Y2       0.262500
     14 C16         -4.4020     2.7690    -0.5610 cx         1 5Y2       0.148500
     15 N5          -1.6880    -5.0680     0.0300 n1         1 5Y2      -0.401800
     16 N4          -4.6510    -1.3860    -0.4690 nd         1 5Y2      -0.616100
     17 N2          -3.4770    -0.7410    -0.2990 na         1 5Y2      -0.012800
     18 C18         -5.5120     3.5330     0.0800 cx         1 5Y2      -0.126900
     19 C17         -4.1430     3.5680     0.6820 cx         1 5Y2      -0.126900
     20 N3          -1.1670    -1.1520     0.0530 nd         1 5Y2      -0.766000
     21 C4           1.4770     0.0040     0.3480 ca         1 5Y2       0.174600
     22 C5           2.6080     0.7070    -0.0700 ca         1 5Y2      -0.188000
     23 C6           3.8770     0.1580     0.0600 ca         1 5Y2       0.089600
     24 C            5.4020    -1.7460     0.7470 c3         1 5Y2      -0.042800
     25 N            5.0220     0.8390    -0.3800 ns         1 5Y2      -0.482100
     26 O            4.4400     2.9950     0.0410 o          1 5Y2      -0.589100
     27 H1           3.0090    -2.7970     1.4270 ha         1 5Y2       0.136000
     28 H2           0.7760    -1.8340     1.2320 ha         1 5Y2       0.170000
     29 H3          -5.2910     0.8610    -0.7000 hn         1 5Y2       0.478800
     30 H4           7.1970     1.7630    -1.2660 hc         1 5Y2       0.063033
     31 H5           6.5160     3.3600    -1.6010 hc         1 5Y2       0.063033
     32 H6           7.1840     3.0100    -0.0150 hc         1 5Y2       0.063033
     33 H7          -1.8640     2.1520    -0.1180 ha         1 5Y2       0.160000
     34 H8          -5.1030    -3.4120    -0.5140 h4         1 5Y2       0.053800
     35 H9          -4.0000     3.1540    -1.4940 h1         1 5Y2       0.090700
     36 H10         -5.8750     4.4100    -0.4380 hc         1 5Y2       0.084700
     37 H11         -6.2750     2.9660     0.5970 hc         1 5Y2       0.084700
     38 H12         -3.9810     3.0180     1.6010 hc         1 5Y2       0.084700
     39 H13         -3.5510     4.4680     0.5820 hc         1 5Y2       0.084700
     40 H14          0.3280     1.6660     0.1010 hn         1 5Y2       0.446800
     41 H15          2.4830     1.6830    -0.5170 ha         1 5Y2       0.151000
     42 H16          5.8700    -1.9570    -0.2180 hc         1 5Y2       0.040367
     43 H17          6.0860    -1.1020     1.3040 hc         1 5Y2       0.040367
     44 H18          5.3350    -2.6940     1.2800 hc         1 5Y2       0.040367
     45 H19          5.7930     0.2590    -0.6730 hn         1 5Y2       0.319500
     46 N1           0.2530     0.6670     0.2160 nu         1 5Y2      -0.733300
@<TRIPOS>BOND
     1     1     2 ar  
     2     1    23 ar  
     3     1    24 1   
     4     2     3 ar  
     5     2    27 1   
     6     3    21 ar  
     7     3    28 1   
     8     4     9 1   
     9     4    14 1   
    10     4    29 1   
    11     5     6 1   
    12     5    25 1   
    13     5    26 2   
    14     6    30 1   
    15     6    31 1   
    16     6    32 1   
    17     7     8 1   
    18     7    20 2   
    19     7    46 1   
    20     8     9 2   
    21     8    33 1   
    22     9    17 1   
    23    10    11 2   
    24    10    17 1   
    25    10    20 1   
    26    11    12 1   
    27    11    13 1   
    28    12    16 2   
    29    12    34 1   
    30    13    15 3   
    31    14    18 1   
    32    14    19 1   
    33    14    35 1   
    34    16    17 1   
    35    18    19 1   
    36    18    36 1   
    37    18    37 1   
    38    19    38 1   
    39    19    39 1   
    40    21    22 ar  
    41    21    46 1   
    42    22    23 ar  
    43    22    41 1   
    44    23    25 1   
    45    24    42 1   
    46    24    43 1   
    47    24    44 1   
    48    25    45 1   
    49    40    46 1   
@<TRIPOS>SUBSTRUCTURE
     1 5Y2         1 TEMP              0 ****  ****    0 ROOT
