@<TRIPOS>MOLECULE
5Y2
   46    49     1     0     0
SMALL
No Charge or Current Charge


@<TRIPOS>ATOM
      1 C1           4.0790    -1.0020     0.9270 ca         1 5Y2      -0.137300
      2 C2           2.9610    -1.6530     1.4840 ca         1 5Y2      -0.068000
      3 C3           1.6720    -1.1300     1.3040 ca         1 5Y2      -0.122000
      4 N6          -4.4100     1.4860    -0.4510 nu         1 5Y2      -0.928200
      5 C7           5.2440     2.0620    -0.9660 c          1 5Y2       0.608100
      6 C8           6.6760     2.3040    -1.4350 c3         1 5Y2      -0.182100
      7 C9          -1.0000     0.0710     0.0880 cc         1 5Y2       0.700900
      8 C10         -2.0540     1.0290    -0.0270 cc         1 5Y2      -0.386000
      9 C11         -3.3400     0.6390    -0.3260 cd         1 5Y2       0.437000
     10 C12         -2.3800    -1.5380    -0.3640 cd         1 5Y2       0.516500
     11 C13         -2.8350    -2.7910    -0.5900 cc         1 5Y2      -0.263300
     12 C14         -4.2200    -2.6440    -0.8530 cc         1 5Y2       0.460500
     13 C15         -2.1420    -4.0200    -0.5840 cg         1 5Y2       0.351700
     14 C16         -4.4120     2.9170    -0.3280 cx         1 5Y2       0.148500
     15 N5          -1.5990    -5.0530    -0.5850 n1         1 5Y2      -0.491000
     16 N4          -4.6800    -1.3910    -0.8110 nd         1 5Y2      -0.616100
     17 N2          -3.4880    -0.7360    -0.5000 na         1 5Y2       0.037900
     18 C18         -5.6760     3.5660     0.1770 cx         1 5Y2      -0.126900
     19 C17         -4.4600     3.4910     1.0660 cx         1 5Y2      -0.126900
     20 N3          -1.0700    -1.2330    -0.0700 nd         1 5Y2      -0.766000
     21 C4           1.4800     0.0420     0.5570 ca         1 5Y2       0.313000
     22 C5           2.5930     0.7020     0.0140 ca         1 5Y2      -0.170000
     23 C6           3.9000     0.1940     0.1910 ca         1 5Y2      -0.003000
     24 C            5.4690    -1.5970     1.1410 c3         1 5Y2      -0.042800
     25 N            5.0520     0.8290    -0.3580 ns         1 5Y2      -0.156000
     26 O            4.3720     2.9090    -1.1210 o          1 5Y2      -0.589100
     27 H1           3.0890    -2.5660     2.0610 ha         1 5Y2       0.118000
     28 H2           0.8220    -1.6350     1.7520 ha         1 5Y2       0.152000
     29 H3          -5.2660     0.9760    -0.6900 hn         1 5Y2       0.534000
     30 H4           6.9740     1.4900    -2.1050 hc         1 5Y2       0.063033
     31 H5           6.8080     3.2850    -1.9060 hc         1 5Y2       0.063033
     32 H6           7.3570     2.1670    -0.5870 hc         1 5Y2       0.063033
     33 H7          -1.8310     2.0750     0.1320 ha         1 5Y2       0.142000
     34 H8          -4.9200    -3.4380    -1.0790 h4         1 5Y2       0.053800
     35 H9          -3.8270     3.4540    -1.0790 h1         1 5Y2       0.090700
     36 H10         -5.9430     4.5350    -0.2380 hc         1 5Y2       0.084700
     37 H11         -6.5220     2.9280     0.4210 hc         1 5Y2       0.084700
     38 H12         -4.4830     2.7970     1.9030 hc         1 5Y2       0.084700
     39 H13         -3.9070     4.4080     1.2500 hc         1 5Y2       0.084700
     40 H14          0.2170     1.5960     0.1980 hn         1 5Y2       0.502000
     41 H15          2.4210     1.6040    -0.5610 ha         1 5Y2       0.133000
     42 H16          5.9370    -1.8600     0.1840 hc         1 5Y2       0.040367
     43 H17          6.1280    -0.8890     1.6570 hc         1 5Y2       0.040367
     44 H18          5.4330    -2.5100     1.7470 hc         1 5Y2       0.040367
     45 H19          5.8920     0.2700    -0.2940 hn         1 5Y2       0.153000
     46 N1           0.2130     0.5970     0.3730 nu         1 5Y2      -0.926900
@<TRIPOS>BOND
     1     1     2 ar  
     2     1    23 ar  
     3     1    24 1   
     4     2     3 ar  
     5     2    27 1   
     6     3    21 ar  
     7     3    28 1   
     8     4     9 1   
     9     4    14 1   
    10     4    29 1   
    11     5     6 1   
    12     5    25 1   
    13     5    26 2   
    14     6    30 1   
    15     6    31 1   
    16     6    32 1   
    17     7     8 1   
    18     7    20 2   
    19     7    46 1   
    20     8     9 2   
    21     8    33 1   
    22     9    17 1   
    23    10    11 2   
    24    10    17 1   
    25    10    20 1   
    26    11    12 1   
    27    11    13 1   
    28    12    16 2   
    29    12    34 1   
    30    13    15 3   
    31    14    18 1   
    32    14    19 1   
    33    14    35 1   
    34    16    17 1   
    35    18    19 1   
    36    18    36 1   
    37    18    37 1   
    38    19    38 1   
    39    19    39 1   
    40    21    22 ar  
    41    21    46 1   
    42    22    23 ar  
    43    22    41 1   
    44    23    25 1   
    45    24    42 1   
    46    24    43 1   
    47    24    44 1   
    48    25    45 1   
    49    40    46 1   
@<TRIPOS>SUBSTRUCTURE
     1 5Y2         1 TEMP              0 ****  ****    0 ROOT
