@<TRIPOS>MOLECULE
5Y3
   56    59     1     0     0
SMALL
abcg2


@<TRIPOS>ATOM
      1 C1           3.6780    -3.3360     0.3960 c          1 5Y3       0.612100
      2 C2           2.7510    -1.1210    -0.2570 ca         1 5Y3       0.027000
      3 C3           1.3910    -1.3890    -0.1760 ca         1 5Y3      -0.201000
      4 N6          -5.4360     2.0370    -0.4930 nc         1 5Y3      -0.615100
      5 C7           3.1890     0.1690    -0.6110 ca         1 5Y3       0.142000
      6 C8           5.0270     0.8530    -1.9980 c3         1 5Y3       0.166100
      7 C9           5.0950     1.2110     0.4180 c3         1 5Y3       0.173800
      8 C10          6.5800     1.0000     0.6760 c3         1 5Y3       0.146800
      9 C11         -2.0400    -0.0830    -0.3960 cc         1 5Y3       0.702900
     10 C12         -3.2460    -0.8190    -0.3050 cc         1 5Y3      -0.386000
     11 C13         -4.4480    -0.1480    -0.3220 cd         1 5Y3       0.437000
     12 C14         -3.1670     1.8560    -0.5400 cc         1 5Y3       0.516500
     13 C15         -3.5110     3.2080    -0.6620 cd         1 5Y3      -0.263300
     14 C16         -4.9210     3.2330    -0.6250 cd         1 5Y3       0.459500
     15 C19         -6.9680    -2.6190     0.6540 cx         1 5Y3      -0.125900
     16 C20         -5.5400    -2.8630     1.0240 cx         1 5Y3      -0.125900
     17 N7          -1.8810     5.1630    -0.9120 n1         1 5Y3      -0.491000
     18 C17         -2.6180     4.2800    -0.7980 ch         1 5Y3       0.351700
     19 N4          -4.3690     1.2120    -0.4410 na         1 5Y3       0.038900
     20 N8          -5.6660    -0.6830    -0.2290 nu         1 5Y3      -0.926200
     21 C18         -5.8770    -2.0920    -0.2170 cx         1 5Y3       0.147500
     22 N5          -1.9980     1.2370    -0.5140 nd         1 5Y3      -0.767000
     23 C4           0.4490    -0.3900    -0.4430 ca         1 5Y3       0.328000
     24 C5           0.8770     0.8910    -0.7880 ca         1 5Y3      -0.144000
     25 C6           2.2400     1.1430    -0.8650 ca         1 5Y3      -0.079000
     26 N1           4.5910     0.4000    -0.6860 nh         1 5Y3      -0.786400
     27 N2           6.9950     1.8190     1.8060 n8         1 5Y3      -0.996200
     28 N            3.7590    -2.0470    -0.0110 ns         1 5Y3      -0.142000
     29 O            2.6280    -3.9170     0.6150 o          1 5Y3      -0.600100
     30 C            5.0110    -4.0230     0.5480 c3         1 5Y3      -0.180100
     31 H1           1.0520    -2.3770     0.0960 ha         1 5Y3       0.145000
     32 H2           4.7320     1.8870    -2.2180 h1         1 5Y3       0.034367
     33 H3           6.1120     0.7950    -2.0770 h1         1 5Y3       0.034367
     34 H4           4.6070     0.2070    -2.7670 h1         1 5Y3       0.034367
     35 H5           4.5530     0.9330     1.3240 h1         1 5Y3       0.048700
     36 H6           4.8960     2.2820     0.2460 h1         1 5Y3       0.048700
     37 H7           6.7400    -0.0510     0.9300 h1         1 5Y3       0.029700
     38 H8           7.1600     1.1930    -0.2350 h1         1 5Y3       0.029700
     39 H9          -3.2320    -1.8960    -0.2240 ha         1 5Y3       0.142000
     40 H10         -5.5600     4.1000    -0.6930 h4         1 5Y3       0.053800
     41 H11         -7.5540    -3.4430     0.2710 hc         1 5Y3       0.084700
     42 H12         -7.5260    -1.9050     1.2450 hc         1 5Y3       0.084700
     43 H13         -5.1330    -2.3100     1.8610 hc         1 5Y3       0.084700
     44 H14         -5.1320    -3.8570     0.8950 hc         1 5Y3       0.084700
     45 H15         -6.4580    -0.0730    -0.3740 hn         1 5Y3       0.534000
     46 H16         -5.7120    -2.5890    -1.1690 h1         1 5Y3       0.089700
     47 H17         -1.0070    -1.7830    -0.2160 hn         1 5Y3       0.503000
     48 H18          0.1710     1.6780    -0.9900 ha         1 5Y3       0.160000
     49 H19          2.5650     2.1400    -1.1370 ha         1 5Y3       0.119000
     50 H20          7.9480     1.5890     2.0550 hn         1 5Y3       0.394500
     51 H21          7.0170     2.7920     1.5230 hn         1 5Y3       0.394500
     52 H23          4.6760    -1.6440    -0.1740 hn         1 5Y3       0.181000
     53 H24          5.1220    -4.7700    -0.2390 hc         1 5Y3       0.062700
     54 H25          5.8630    -3.3470     0.4970 hc         1 5Y3       0.062700
     55 H26          5.0400    -4.5480     1.5020 hc         1 5Y3       0.062700
     56 N3          -0.8840    -0.7920    -0.3560 nu         1 5Y3      -0.923900
@<TRIPOS>BOND
     1     1    28 1   
     2     1    29 2   
     3     1    30 1   
     4     2     3 ar  
     5     2     5 ar  
     6     2    28 1   
     7     3    23 ar  
     8     3    31 1   
     9     4    14 2   
    10     4    19 1   
    11     5    25 ar  
    12     5    26 1   
    13     6    26 1   
    14     6    32 1   
    15     6    33 1   
    16     6    34 1   
    17     7     8 1   
    18     7    26 1   
    19     7    35 1   
    20     7    36 1   
    21     8    27 1   
    22     8    37 1   
    23     8    38 1   
    24     9    10 1   
    25     9    22 2   
    26     9    56 1   
    27    10    11 2   
    28    10    39 1   
    29    11    19 1   
    30    11    20 1   
    31    12    13 2   
    32    12    19 1   
    33    12    22 1   
    34    13    14 1   
    35    13    18 1   
    36    14    40 1   
    37    15    16 1   
    38    15    21 1   
    39    15    41 1   
    40    15    42 1   
    41    16    21 1   
    42    16    43 1   
    43    16    44 1   
    44    17    18 3   
    45    20    21 1   
    46    20    45 1   
    47    21    46 1   
    48    23    24 ar  
    49    23    56 1   
    50    24    25 ar  
    51    24    48 1   
    52    25    49 1   
    53    27    50 1   
    54    27    51 1   
    55    28    52 1   
    56    30    53 1   
    57    30    54 1   
    58    30    55 1   
    59    47    56 1   
@<TRIPOS>SUBSTRUCTURE
     1 5Y3         1 TEMP              0 ****  ****    0 ROOT
