@<TRIPOS>MOLECULE
5Y3
   56    59     1     0     0
SMALL
No Charge or Current Charge


@<TRIPOS>ATOM
      1 C1           3.6990    -2.7990     1.1640 c          1 5Y3       0.612100
      2 C2           2.7260    -0.8920    -0.2660 ca         1 5Y3       0.027000
      3 C3           1.3510    -1.2170    -0.2020 ca         1 5Y3      -0.201000
      4 N6          -5.4740     2.0770     0.0130 nc         1 5Y3      -0.615100
      5 C7           3.1360     0.2640    -0.9760 ca         1 5Y3       0.142000
      6 C8           5.1150     0.9280    -2.3730 c3         1 5Y3       0.166100
      7 C9           5.1930     1.1770     0.1410 c3         1 5Y3       0.173800
      8 C10          6.5990     0.5710     0.4320 c3         1 5Y3       0.146800
      9 C11         -2.0940    -0.0780    -0.5700 cc         1 5Y3       0.702900
     10 C12         -3.2830    -0.8300    -0.5200 cc         1 5Y3      -0.386000
     11 C13         -4.4770    -0.1870    -0.3270 cd         1 5Y3       0.437000
     12 C14         -3.1670     1.8730    -0.2480 cc         1 5Y3       0.516500
     13 C15         -3.4670     3.1850    -0.0790 cd         1 5Y3      -0.263300
     14 C16         -4.8660     3.2550     0.0740 cd         1 5Y3       0.459500
     15 C19         -7.1470    -2.7810     0.3370 cx         1 5Y3      -0.125900
     16 C20         -5.7480    -3.0950     0.8060 cx         1 5Y3      -0.125900
     17 N7          -1.8220     5.1650    -0.0430 n1         1 5Y3      -0.491000
     18 C17         -2.5540     4.2560    -0.0620 ch         1 5Y3       0.351700
     19 N4          -4.4000     1.2080    -0.1900 na         1 5Y3       0.038900
     20 N8          -5.6920    -0.8190    -0.2620 nu         1 5Y3      -0.926200
     21 C18         -5.9590    -2.2230    -0.4060 cx         1 5Y3       0.147500
     22 N5          -2.0320     1.2150    -0.4360 nd         1 5Y3      -0.767000
     23 C4           0.3910    -0.4020    -0.8200 ca         1 5Y3       0.328000
     24 C5           0.8050     0.7340    -1.5330 ca         1 5Y3      -0.144000
     25 C6           2.1670     1.0660    -1.6080 ca         1 5Y3      -0.079000
     26 N1           4.5060     0.6260    -1.0580 nh         1 5Y3      -0.786400
     27 N2           7.2210     1.0950     1.6740 n8         1 5Y3      -0.996200
     28 N            3.7380    -1.6950     0.3290 ns         1 5Y3      -0.142000
     29 O            2.6730    -3.3190     1.5870 o          1 5Y3      -0.600100
     30 C            5.0760    -3.3390     1.5400 c3         1 5Y3      -0.180100
     31 H1           1.0120    -2.1010     0.3230 ha         1 5Y3       0.145000
     32 H2           5.1960     2.0130    -2.5220 h1         1 5Y3       0.034367
     33 H3           6.1170     0.4840    -2.4460 h1         1 5Y3       0.034367
     34 H4           4.5060     0.5100    -3.1860 h1         1 5Y3       0.034367
     35 H5           4.5640     1.0100     1.0270 h1         1 5Y3       0.048700
     36 H6           5.2960     2.2650     0.0290 h1         1 5Y3       0.048700
     37 H7           6.5090    -0.5190     0.5260 h1         1 5Y3       0.029700
     38 H8           7.2720     0.7870    -0.4090 h1         1 5Y3       0.029700
     39 H9          -3.2410    -1.9040    -0.6370 ha         1 5Y3       0.142000
     40 H10         -5.4650     4.1440     0.2290 h4         1 5Y3       0.053800
     41 H11         -7.7110    -3.5770    -0.1440 hc         1 5Y3       0.084700
     42 H12         -7.7430    -2.1020     0.9410 hc         1 5Y3       0.084700
     43 H13         -5.4000    -2.6210     1.7210 hc         1 5Y3       0.084700
     44 H14         -5.3690    -4.1000     0.6420 hc         1 5Y3       0.084700
     45 H15         -6.4560    -0.1500    -0.1260 hn         1 5Y3       0.534000
     46 H16         -5.7240    -2.6480    -1.3850 h1         1 5Y3       0.089700
     47 H17         -1.1010    -1.7600    -0.5720 hn         1 5Y3       0.503000
     48 H18          0.0730     1.3570    -2.0360 ha         1 5Y3       0.160000
     49 H19          2.4710     1.9540    -2.1560 ha         1 5Y3       0.119000
     50 H20          8.1600     0.6900     1.7730 hn         1 5Y3       0.394500
     51 H21          7.4050     2.0990     1.5590 hn         1 5Y3       0.394500
     52 H23          4.6710    -1.3880     0.0880 hn         1 5Y3       0.181000
     53 H24          5.6440    -3.5430     0.6250 hc         1 5Y3       0.062700
     54 H25          5.6590    -2.5330     2.0010 hc         1 5Y3       0.062700
     55 H26          5.0220    -4.2200     2.1900 hc         1 5Y3       0.062700
     56 N3          -0.9490    -0.7730    -0.7470 nu         1 5Y3      -0.923900
@<TRIPOS>BOND
     1     1    28 1   
     2     1    29 2   
     3     1    30 1   
     4     2     3 ar  
     5     2     5 ar  
     6     2    28 1   
     7     3    23 ar  
     8     3    31 1   
     9     4    14 2   
    10     4    19 1   
    11     5    25 ar  
    12     5    26 1   
    13     6    26 1   
    14     6    32 1   
    15     6    33 1   
    16     6    34 1   
    17     7     8 1   
    18     7    26 1   
    19     7    35 1   
    20     7    36 1   
    21     8    27 1   
    22     8    37 1   
    23     8    38 1   
    24     9    10 1   
    25     9    22 2   
    26     9    56 1   
    27    10    11 2   
    28    10    39 1   
    29    11    19 1   
    30    11    20 1   
    31    12    13 2   
    32    12    19 1   
    33    12    22 1   
    34    13    14 1   
    35    13    18 1   
    36    14    40 1   
    37    15    16 1   
    38    15    21 1   
    39    15    41 1   
    40    15    42 1   
    41    16    21 1   
    42    16    43 1   
    43    16    44 1   
    44    17    18 3   
    45    20    21 1   
    46    20    45 1   
    47    21    46 1   
    48    23    24 ar  
    49    23    56 1   
    50    24    25 ar  
    51    24    48 1   
    52    25    49 1   
    53    27    50 1   
    54    27    51 1   
    55    28    52 1   
    56    30    53 1   
    57    30    54 1   
    58    30    55 1   
    59    47    56 1   
@<TRIPOS>SUBSTRUCTURE
     1 5Y3         1 TEMP              0 ****  ****    0 ROOT
