@<TRIPOS>MOLECULE
5Y4
   62    65     1     0     0
SMALL
No Charge or Current Charge


@<TRIPOS>ATOM
      1 C1          -3.0790     2.6420     1.2670 c          1 5Y4       0.612100
      2 C2          -2.1050     0.9570    -0.4200 ca         1 5Y4       0.020000
      3 C3          -0.7250     1.2180    -0.2530 ca         1 5Y4      -0.195000
      4 N6           5.9830    -2.3170    -0.2570 nc         1 5Y4      -0.616100
      5 C7          -2.5190    -0.0670    -1.3120 ca         1 5Y4       0.153000
      6 C8          -4.4370    -0.5380    -2.8730 c3         1 5Y4       0.168100
      7 C9          -4.7000    -0.9300    -0.3880 c3         1 5Y4       0.172800
      8 C10         -6.0490    -0.2010    -0.1140 c3         1 5Y4       0.164800
      9 C11         -7.8770     0.3170     1.4530 c3         1 5Y4       0.150600
     10 C12         -7.0890    -1.9990     1.2510 c3         1 5Y4       0.150600
     11 C13          2.6980     0.0210    -0.6460 cc         1 5Y4       0.702900
     12 C14          3.9050     0.7150    -0.4350 cc         1 5Y4      -0.388000
     13 C15          5.0690     0.0070    -0.2930 cd         1 5Y4       0.439000
     14 C16          3.6980    -1.9930    -0.5780 cc         1 5Y4       0.517500
     15 C19          3.0060    -4.3530    -0.7770 ch         1 5Y4       0.352700
     16 C20          6.6130     1.9770    -0.0040 cx         1 5Y4       0.150500
     17 C21          6.3730     2.6650     1.3170 cx         1 5Y4      -0.127900
     18 C22          7.7820     2.3750     0.8620 cx         1 5Y4      -0.127900
     19 N7           2.2470    -5.2280    -0.9260 n1         1 5Y4      -0.492000
     20 C17          3.9500    -3.3250    -0.5960 cd         1 5Y4      -0.264300
     21 C18          5.3380    -3.4680    -0.3990 cd         1 5Y4       0.460500
     22 N4           4.9450    -1.3890    -0.3700 na         1 5Y4       0.037900
     23 N8           6.2980     0.5780    -0.0840 nu         1 5Y4      -0.929200
     24 N5           2.5920    -1.2740    -0.7110 nd         1 5Y4      -0.768000
     25 C4           0.2370     0.4690    -0.9450 ca         1 5Y4       0.322000
     26 C5          -0.1780    -0.5330    -1.8350 ca         1 5Y4      -0.140000
     27 C6          -1.5450    -0.8010    -2.0150 ca         1 5Y4      -0.084000
     28 N           -3.1140     1.7040     0.2490 ns         1 5Y4      -0.146000
     29 O           -2.0590     3.0260     1.8280 o          1 5Y4      -0.596100
     30 C           -4.4530     3.1730     1.6640 c3         1 5Y4      -0.181100
     31 N1          -3.8950    -0.3630    -1.5060 nh         1 5Y4      -0.786400
     32 N2          -6.7250    -0.5650     1.1610 n3         1 5Y4      -0.716600
     33 H1          -0.3850     2.0050     0.4090 ha         1 5Y4       0.143000
     34 H2          -4.4830    -1.6040    -3.1360 h1         1 5Y4       0.035033
     35 H3          -5.4460    -0.1120    -2.9470 h1         1 5Y4       0.035033
     36 H4          -3.8030    -0.0240    -3.6080 h1         1 5Y4       0.035033
     37 H5          -4.1080    -0.8970     0.5370 h1         1 5Y4       0.049700
     38 H6          -4.9040    -1.9890    -0.5910 h1         1 5Y4       0.049700
     39 H7          -5.8440     0.8770    -0.1100 h1         1 5Y4       0.031200
     40 H8          -6.7240    -0.3900    -0.9600 h1         1 5Y4       0.031200
     41 H9          -8.3080     0.0830     2.4350 h1         1 5Y4       0.031200
     42 H10         -7.5670     1.3710     1.4640 h1         1 5Y4       0.031200
     43 H11         -8.6630     0.1990     0.6950 h1         1 5Y4       0.031200
     44 H12         -7.7890    -2.2760     0.4510 h1         1 5Y4       0.031200
     45 H13         -6.2010    -2.6390     1.1700 h1         1 5Y4       0.031200
     46 H14         -7.5670    -2.2170     2.2150 h1         1 5Y4       0.031200
     47 H15          3.9000     1.7950    -0.3910 ha         1 5Y4       0.142000
     48 H16          6.4350     2.5520    -0.9170 h1         1 5Y4       0.091700
     49 H17          6.0320     3.6970     1.2900 hc         1 5Y4       0.084950
     50 H18          5.9700     2.0730     2.1340 hc         1 5Y4       0.084950
     51 H19          8.3300     1.5920     1.3800 hc         1 5Y4       0.084950
     52 H20          8.3910     3.2120     0.5300 hc         1 5Y4       0.084950
     53 H21          5.9030    -4.3910    -0.3540 h4         1 5Y4       0.053800
     54 H22          7.0350    -0.1310    -0.0190 hn         1 5Y4       0.535000
     55 H23          1.7570     1.7200    -0.4360 hn         1 5Y4       0.502000
     56 H24          0.5570    -1.1020    -2.3950 ha         1 5Y4       0.160000
     57 H25         -1.8470    -1.5880    -2.7000 ha         1 5Y4       0.119000
     58 H26         -4.0440     1.4930    -0.0890 hn         1 5Y4       0.178000
     59 H27         -5.0880     2.3290     1.9560 hc         1 5Y4       0.063033
     60 H28         -4.4020     3.9290     2.4550 hc         1 5Y4       0.063033
     61 H29         -4.9650     3.5510     0.7710 hc         1 5Y4       0.063033
     62 N3           1.5840     0.7760    -0.7630 nu         1 5Y4      -0.922900
@<TRIPOS>BOND
     1     1    28 1   
     2     1    29 2   
     3     1    30 1   
     4     2     3 ar  
     5     2     5 ar  
     6     2    28 1   
     7     3    25 ar  
     8     3    33 1   
     9     4    21 2   
    10     4    22 1   
    11     5    27 ar  
    12     5    31 1   
    13     6    31 1   
    14     6    34 1   
    15     6    35 1   
    16     6    36 1   
    17     7     8 1   
    18     7    31 1   
    19     7    37 1   
    20     7    38 1   
    21     8    32 1   
    22     8    39 1   
    23     8    40 1   
    24     9    32 1   
    25     9    41 1   
    26     9    42 1   
    27     9    43 1   
    28    10    32 1   
    29    10    44 1   
    30    10    45 1   
    31    10    46 1   
    32    11    12 1   
    33    11    24 2   
    34    11    62 1   
    35    12    13 2   
    36    12    47 1   
    37    13    22 1   
    38    13    23 1   
    39    14    20 2   
    40    14    22 1   
    41    14    24 1   
    42    15    19 3   
    43    15    20 1   
    44    16    17 1   
    45    16    18 1   
    46    16    23 1   
    47    16    48 1   
    48    17    18 1   
    49    17    49 1   
    50    17    50 1   
    51    18    51 1   
    52    18    52 1   
    53    20    21 1   
    54    21    53 1   
    55    23    54 1   
    56    25    26 ar  
    57    25    62 1   
    58    26    27 ar  
    59    26    56 1   
    60    27    57 1   
    61    28    58 1   
    62    30    59 1   
    63    30    60 1   
    64    30    61 1   
    65    55    62 1   
@<TRIPOS>SUBSTRUCTURE
     1 5Y4         1 TEMP              0 ****  ****    0 ROOT
