@<TRIPOS>MOLECULE
5Y4
   62    65     1     0     0
SMALL
bcc


@<TRIPOS>ATOM
      1 C1          -2.9930     3.3740     0.4290 c          1 5Y4       0.679100
      2 C2          -2.1020     1.2650    -0.5510 ca         1 5Y4       0.112600
      3 C3          -0.7410     1.4640    -0.3760 ca         1 5Y4      -0.213000
      4 N6           5.9600    -2.1960    -0.7720 nc         1 5Y4      -0.616100
      5 C7          -2.5720     0.0440    -1.0730 ca         1 5Y4       0.014600
      6 C8          -4.4070    -0.7420    -2.4370 c3         1 5Y4       0.168100
      7 C9          -4.5760    -0.7280    -0.0080 c3         1 5Y4       0.172800
      8 C10         -6.0370    -0.3320     0.1680 c3         1 5Y4       0.164800
      9 C11         -7.7820    -0.2140     1.8070 c3         1 5Y4       0.150600
     10 C12         -6.9490    -2.3400     1.1350 c3         1 5Y4       0.150600
     11 C13          2.6450     0.0430    -0.5780 cc         1 5Y4       0.768200
     12 C14          3.8650     0.6940    -0.2710 cc         1 5Y4      -0.471300
     13 C15          5.0400    -0.0250    -0.3060 cd         1 5Y4       0.351300
     14 C16          3.7100    -1.9000    -0.9570 cc         1 5Y4       0.517500
     15 C19          3.0950    -4.2230    -1.6390 ch         1 5Y4       0.263500
     16 C20          6.5170     1.7790     0.3370 cx         1 5Y4       0.150500
     17 C21          6.0510     2.2650     1.6770 cx         1 5Y4      -0.127900
     18 C22          7.5060     2.0270     1.4260 cx         1 5Y4      -0.127900
     19 N7           2.3350    -5.0400    -1.9400 n1         1 5Y4      -0.402800
     20 C17          4.0140    -3.2310    -1.2720 cd         1 5Y4      -0.264300
     21 C18          5.4150    -3.3290    -1.1350 cd         1 5Y4       0.460500
     22 N4           4.9230    -1.3390    -0.6670 na         1 5Y4      -0.012800
     23 N8           6.2620     0.4230    -0.0200 nu         1 5Y4      -0.735600
     24 N5           2.5660    -1.2370    -0.9160 nd         1 5Y4      -0.768000
     25 C4           0.1780     0.4670    -0.7240 ca         1 5Y4       0.183600
     26 C5          -0.2790    -0.7330    -1.2630 ca         1 5Y4      -0.158000
     27 C6          -1.6460    -0.9230    -1.4220 ca         1 5Y4      -0.102000
     28 N           -3.0810     2.2120    -0.2660 ns         1 5Y4      -0.472100
     29 O           -1.9570     3.8040     0.9040 o          1 5Y4      -0.596100
     30 C           -4.3140     4.0790     0.6040 c3         1 5Y4      -0.181100
     31 N1          -3.9770    -0.1220    -1.1970 nh         1 5Y4      -0.648000
     32 N2          -6.6200    -0.9450     1.3480 n3         1 5Y4      -0.716600
     33 H1          -0.3810     2.3980     0.0270 ha         1 5Y4       0.161000
     34 H2          -4.2130    -1.8210    -2.4750 h1         1 5Y4       0.035033
     35 H3          -5.4790    -0.5990    -2.5740 h1         1 5Y4       0.035033
     36 H4          -3.9020    -0.2730    -3.2800 h1         1 5Y4       0.035033
     37 H5          -4.0300    -0.3860     0.8730 h1         1 5Y4       0.049700
     38 H6          -4.4600    -1.8210    -0.0420 h1         1 5Y4       0.049700
     39 H7          -6.0760     0.7540     0.2890 h1         1 5Y4       0.031200
     40 H8          -6.6240    -0.5630    -0.7360 h1         1 5Y4       0.031200
     41 H9          -8.1660    -0.6650     2.7220 h1         1 5Y4       0.031200
     42 H10         -7.5120     0.8180     2.0340 h1         1 5Y4       0.031200
     43 H11         -8.6040    -0.1930     1.0750 h1         1 5Y4       0.031200
     44 H12         -7.7150    -2.4870     0.3570 h1         1 5Y4       0.031200
     45 H13         -6.0670    -2.9100     0.8420 h1         1 5Y4       0.031200
     46 H14         -7.3250    -2.7790     2.0600 h1         1 5Y4       0.031200
     47 H15          3.8820     1.7410    -0.0080 ha         1 5Y4       0.160000
     48 H16          6.4870     2.4850    -0.4870 h1         1 5Y4       0.091700
     49 H17          5.6940     3.2840     1.7400 hc         1 5Y4       0.084950
     50 H18          5.5230     1.5600     2.3070 hc         1 5Y4       0.084950
     51 H19          7.9630     1.1630     1.8910 hc         1 5Y4       0.084950
     52 H20          8.1620     2.8800     1.3190 hc         1 5Y4       0.084950
     53 H21          6.0260    -4.2040    -1.2970 h4         1 5Y4       0.053800
     54 H22          7.0420    -0.1960    -0.1880 hn         1 5Y4       0.479800
     55 H23          1.6680     1.7430    -0.2110 hn         1 5Y4       0.446800
     56 H24          0.4080    -1.5140    -1.5420 ha         1 5Y4       0.178000
     57 H25         -1.9890    -1.8650    -1.8310 ha         1 5Y4       0.137000
     58 H26         -3.9910     1.9260    -0.6090 hn         1 5Y4       0.344500
     59 H27         -4.7660     3.7620     1.5450 hc         1 5Y4       0.063033
     60 H28         -4.1590     5.1540     0.6550 hc         1 5Y4       0.063033
     61 H29         -5.0230     3.8660    -0.1960 hc         1 5Y4       0.063033
     62 N3           1.5180     0.7920    -0.5100 nu         1 5Y4      -0.729300
@<TRIPOS>BOND
     1     1    28 1   
     2     1    29 2   
     3     1    30 1   
     4     2     3 ar  
     5     2     5 ar  
     6     2    28 1   
     7     3    25 ar  
     8     3    33 1   
     9     4    21 2   
    10     4    22 1   
    11     5    27 ar  
    12     5    31 1   
    13     6    31 1   
    14     6    34 1   
    15     6    35 1   
    16     6    36 1   
    17     7     8 1   
    18     7    31 1   
    19     7    37 1   
    20     7    38 1   
    21     8    32 1   
    22     8    39 1   
    23     8    40 1   
    24     9    32 1   
    25     9    41 1   
    26     9    42 1   
    27     9    43 1   
    28    10    32 1   
    29    10    44 1   
    30    10    45 1   
    31    10    46 1   
    32    11    12 1   
    33    11    24 2   
    34    11    62 1   
    35    12    13 2   
    36    12    47 1   
    37    13    22 1   
    38    13    23 1   
    39    14    20 2   
    40    14    22 1   
    41    14    24 1   
    42    15    19 3   
    43    15    20 1   
    44    16    17 1   
    45    16    18 1   
    46    16    23 1   
    47    16    48 1   
    48    17    18 1   
    49    17    49 1   
    50    17    50 1   
    51    18    51 1   
    52    18    52 1   
    53    20    21 1   
    54    21    53 1   
    55    23    54 1   
    56    25    26 ar  
    57    25    62 1   
    58    26    27 ar  
    59    26    56 1   
    60    27    57 1   
    61    28    58 1   
    62    30    59 1   
    63    30    60 1   
    64    30    61 1   
    65    55    62 1   
@<TRIPOS>SUBSTRUCTURE
     1 5Y4         1 TEMP              0 ****  ****    0 ROOT
