@<TRIPOS>MOLECULE
5Y5
   44    47     1     0     0
SMALL
No Charge or Current Charge


@<TRIPOS>ATOM
      1 C2           0.2400    -0.7840     0.8490 c6         1 5Y5       0.240500
      2 C3           1.3510    -0.3220    -0.1230 c6         1 5Y5      -0.057100
      3 C4           2.7520    -0.7970     0.2860 ca         1 5Y5      -0.074300
      4 C5           2.9300    -1.8670     1.1960 ca         1 5Y5      -0.065300
      5 C6           1.7330    -2.5770     1.8430 c6         1 5Y5      -0.030100
      6 C7          -1.8210     0.6300     0.4270 cc         1 5Y5       0.419000
      7 C8          -1.3540     1.8060     0.9750 cd         1 5Y5      -0.341000
      8 C17          5.1730    -0.5880     0.0680 ca         1 5Y5      -0.016900
      9 C16          5.3520    -1.6430     0.9760 ca         1 5Y5      -0.079000
     10 C15          4.2330    -2.2790     1.5380 ca         1 5Y5      -0.107000
     11 C14         -7.1710    -1.0130    -0.2150 c3         1 5Y5      -0.136100
     12 C12         -5.0320     0.2840    -0.7080 cc         1 5Y5       0.480300
     13 C11         -3.8660     1.7860     0.1780 cc         1 5Y5       0.461500
     14 C1           0.3880    -2.2910     1.1360 c6         1 5Y5      -0.087400
     15 Br1          6.6940     0.2770    -0.7020 br         1 5Y5      -0.093100
     16 C18          3.8790    -0.1670    -0.2780 ca         1 5Y5      -0.080000
     17 N1          -1.0830    -0.5220     0.2610 nu         1 5Y5      -0.951200
     18 C9          -2.1870     2.9570     1.1080 cd         1 5Y5       0.455300
     19 N2          -3.1600     0.6340     0.0040 na         1 5Y5       0.034900
     20 N5          -3.4470     2.9700     0.7170 nc         1 5Y5      -0.689000
     21 N3          -3.8730    -0.3760    -0.5630 nd         1 5Y5      -0.594100
     22 N4          -5.1270     1.6030    -0.2790 nc         1 5Y5      -0.386300
     23 F1          -5.9360    -1.3580    -2.1840 f          1 5Y5      -0.112000
     24 F2          -7.0210     0.5040    -2.0040 f          1 5Y5      -0.112000
     25 H2           0.3540    -0.2460     1.8030 h1         1 5Y5       0.071700
     26 H32          1.1370    -0.7030    -1.1310 hc         1 5Y5       0.063700
     27 H31          1.3360     0.7730    -0.2010 hc         1 5Y5       0.063700
     28 H61          1.9070    -3.6620     1.8660 hc         1 5Y5       0.058700
     29 H62          1.6630    -2.2590     2.8920 hc         1 5Y5       0.058700
     30 H8          -0.3290     1.8710     1.3130 ha         1 5Y5       0.141000
     31 H103        -1.6460     5.0320     0.9490 hc         1 5Y5       0.060700
     32 H101        -2.3200     4.5740     2.5240 hc         1 5Y5       0.060700
     33 H102        -0.6630     4.1180     2.1030 hc         1 5Y5       0.060700
     34 H16          6.3550    -1.9670     1.2440 ha         1 5Y5       0.133000
     35 H15          4.3790    -3.0940     2.2430 ha         1 5Y5       0.118000
     36 H142        -6.6180    -1.7760     0.3470 hc         1 5Y5       0.070367
     37 H143        -7.5160    -0.2490     0.4920 hc         1 5Y5       0.070367
     38 H141        -8.0510    -1.4880    -0.6640 hc         1 5Y5       0.070367
     39 H11         -0.4400    -2.6440     1.7650 hc         1 5Y5       0.058700
     40 H12          0.3380    -2.8580     0.1960 hc         1 5Y5       0.058700
     41 H18          3.7500     0.6500    -0.9850 ha         1 5Y5       0.130000
     42 HN1         -1.6270    -1.2960    -0.1280 hn         1 5Y5       0.529000
     43 C10         -1.6770     4.2380     1.7030 c3         1 5Y5      -0.153400
     44 C13         -6.2740    -0.3840    -1.3020 c3         1 5Y5       0.197700
@<TRIPOS>BOND
     1     1     2 1   
     2     1    14 1   
     3     1    17 1   
     4     1    25 1   
     5     2     3 1   
     6     2    26 1   
     7     2    27 1   
     8     3     4 ar  
     9     3    16 ar  
    10     4     5 1   
    11     4    10 ar  
    12     5    14 1   
    13     5    28 1   
    14     5    29 1   
    15     6     7 2   
    16     6    17 1   
    17     6    19 1   
    18     7    18 1   
    19     7    30 1   
    20     8     9 ar  
    21     8    15 1   
    22     8    16 ar  
    23     9    10 ar  
    24     9    34 1   
    25    10    35 1   
    26    11    36 1   
    27    11    37 1   
    28    11    38 1   
    29    11    44 1   
    30    12    21 2   
    31    12    22 1   
    32    12    44 1   
    33    13    19 1   
    34    13    20 1   
    35    13    22 2   
    36    14    39 1   
    37    14    40 1   
    38    16    41 1   
    39    17    42 1   
    40    18    20 2   
    41    18    43 1   
    42    19    21 1   
    43    23    44 1   
    44    24    44 1   
    45    31    43 1   
    46    32    43 1   
    47    33    43 1   
@<TRIPOS>SUBSTRUCTURE
     1 5Y5         1 TEMP              0 ****  ****    0 ROOT
