@<TRIPOS>MOLECULE
5Y5
   44    47     1     0     0
SMALL
bcc


@<TRIPOS>ATOM
      1 C2           0.2460    -0.9000     1.0490 c6         1 5Y5       0.240500
      2 C3           1.1650    -0.4110    -0.0680 c6         1 5Y5      -0.057100
      3 C4           2.6100    -0.7520     0.1840 ca         1 5Y5      -0.074300
      4 C5           2.9770    -1.7690     1.0650 ca         1 5Y5      -0.065300
      5 C6           1.9500    -2.5260     1.8660 c6         1 5Y5      -0.030100
      6 C7          -1.8080     0.4180     0.8110 cc         1 5Y5       0.331300
      7 C8          -1.3520     1.6140     1.3510 cd         1 5Y5      -0.424300
      8 C17          4.9310    -0.3610    -0.3230 ca         1 5Y5      -0.016900
      9 C16          5.3150    -1.3740     0.5440 ca         1 5Y5      -0.097000
     10 C15          4.3290    -2.0630     1.2290 ca         1 5Y5      -0.125000
     11 C14         -7.3500    -0.0600    -1.1870 c3         1 5Y5      -0.136100
     12 C12         -4.9380    -0.0020    -0.4180 cc         1 5Y5       0.480300
     13 C11         -3.8810     1.5790     0.4500 cc         1 5Y5       0.461500
     14 C1           0.5300    -2.3650     1.3440 c6         1 5Y5      -0.087400
     15 BR1          6.2510     0.6070    -1.2690 br         1 5Y5      -0.093100
     16 C18          3.5960    -0.0460    -0.5050 ca         1 5Y5      -0.098000
     17 N1          -1.1500    -0.7300     0.6980 nu         1 5Y5      -0.757600
     18 C9          -2.2010     2.7260     1.4030 cd         1 5Y5       0.520600
     19 N2          -3.0950     0.4580     0.3700 na         1 5Y5      -0.015800
     20 N5          -3.4530     2.7240     0.9630 nc         1 5Y5      -0.689000
     21 N3          -3.7700    -0.5590    -0.1840 nd         1 5Y5      -0.594100
     22 N4          -5.0690     1.2800    -0.0600 nc         1 5Y5      -0.386300
     23 F1          -6.2110    -1.9430    -0.3500 f          1 5Y5      -0.233300
     24 F2          -5.6090    -1.1900    -2.2970 f          1 5Y5      -0.233300
     25 H2           0.4380    -0.3230     1.9580 h1         1 5Y5       0.071700
     26 H32          0.8440    -0.8760    -1.0060 hc         1 5Y5       0.063700
     27 H31          1.0590     0.6670    -0.2090 hc         1 5Y5       0.063700
     28 H61          2.2120    -3.5860     1.8930 hc         1 5Y5       0.058700
     29 H62          1.9950    -2.1830     2.9040 hc         1 5Y5       0.058700
     30 H8          -0.3440     1.6910     1.7270 ha         1 5Y5       0.159000
     31 H103        -1.2740     4.6250     1.1390 hc         1 5Y5       0.060700
     32 H101        -2.4780     4.5870     2.4220 hc         1 5Y5       0.060700
     33 H102        -0.8810     3.8560     2.6710 hc         1 5Y5       0.060700
     34 H16          6.3560    -1.6270     0.6900 ha         1 5Y5       0.151000
     35 H15          4.6210    -2.8560     1.9080 ha         1 5Y5       0.136000
     36 H142        -7.7150     0.2390    -0.2070 hc         1 5Y5       0.070367
     37 H143        -7.2330     0.8360    -1.7940 hc         1 5Y5       0.070367
     38 H141        -8.0910    -0.7070    -1.6550 hc         1 5Y5       0.070367
     39 H11         -0.1780    -2.7470     2.0810 hc         1 5Y5       0.058700
     40 H12          0.3960    -2.9500     0.4280 hc         1 5Y5       0.058700
     41 H18          3.3040     0.7490    -1.1800 ha         1 5Y5       0.148000
     42 HN1         -1.6130    -1.4850     0.2110 hn         1 5Y5       0.473800
     43 C10         -1.6800     4.0170     1.9500 c3         1 5Y5      -0.153400
     44 C13         -6.0430    -0.7880    -1.0630 c3         1 5Y5       0.440300
@<TRIPOS>BOND
     1     1     2 1   
     2     1    14 1   
     3     1    17 1   
     4     1    25 1   
     5     2     3 1   
     6     2    26 1   
     7     2    27 1   
     8     3     4 ar  
     9     3    16 ar  
    10     4     5 1   
    11     4    10 ar  
    12     5    14 1   
    13     5    28 1   
    14     5    29 1   
    15     6     7 2   
    16     6    17 1   
    17     6    19 1   
    18     7    18 1   
    19     7    30 1   
    20     8     9 ar  
    21     8    15 1   
    22     8    16 ar  
    23     9    10 ar  
    24     9    34 1   
    25    10    35 1   
    26    11    36 1   
    27    11    37 1   
    28    11    38 1   
    29    11    44 1   
    30    12    21 2   
    31    12    22 1   
    32    12    44 1   
    33    13    19 1   
    34    13    20 1   
    35    13    22 2   
    36    14    39 1   
    37    14    40 1   
    38    16    41 1   
    39    17    42 1   
    40    18    20 2   
    41    18    43 1   
    42    19    21 1   
    43    23    44 1   
    44    24    44 1   
    45    31    43 1   
    46    32    43 1   
    47    33    43 1   
@<TRIPOS>SUBSTRUCTURE
     1 5Y5         1 TEMP              0 ****  ****    0 ROOT
