@<TRIPOS>MOLECULE
5Y6
   51    55     1     0     0
SMALL
abcg2


@<TRIPOS>ATOM
      1 C2           3.2240    -3.7790    -0.1190 c          1 5Y6       0.696100
      2 C4           3.9300    -1.7340     0.7240 c5         1 5Y6       0.075000
      3 C5           2.6100    -1.5650    -0.0670 c5         1 5Y6       0.173000
      4 C6           1.4870    -0.9880     0.7810 c6         1 5Y6      -0.095900
      5 C7           1.7140     0.4930     1.0440 c6         1 5Y6       0.236300
      6 C11          1.3650     2.4690    -0.3520 ca         1 5Y6       0.371000
      7 C12          2.0980     3.6560    -0.4650 ca         1 5Y6       0.011000
      8 C16         -0.5800     3.8840    -0.4960 ca         1 5Y6       0.360900
      9 C17         -0.0360     2.6120    -0.3860 cp         1 5Y6      -0.113000
     10 C18         -0.9330     1.4370    -0.3660 cp         1 5Y6      -0.060000
     11 C19         -1.8390     1.2460     0.6770 ca         1 5Y6      -0.043000
     12 C21         -3.6650    -0.2390     1.7200 c5         1 5Y6      -0.244100
     13 C27         -2.6400    -0.7560    -0.3950 ca         1 5Y6       0.282000
     14 O1           3.1400    -4.9590    -0.3730 o          1 5Y6      -0.536000
     15 N3           4.2270    -3.1200     0.4810 ns         1 5Y6      -0.544900
     16 N8           1.9270     1.2170    -0.1940 nh         1 5Y6      -0.866400
     17 C9           3.0220     0.7340    -1.0060 c6         1 5Y6       0.236300
     18 C10          2.7960    -0.7400    -1.3350 c6         1 5Y6      -0.095900
     19 CL           3.8210     3.6660    -0.3350 cl         1 5Y6      -0.189000
     20 C14          1.4520     4.8760    -0.6070 ca         1 5Y6       0.365900
     21 N15          0.1360     4.9960    -0.6120 nb         1 5Y6      -0.664000
     22 C20         -2.6760     0.1490     0.6670 ca         1 5Y6      -0.128300
     23 S22         -4.7370    -1.3970     0.8540 s6         1 5Y6       1.163100
     24 O23         -5.0760    -2.5680     1.6410 o          1 5Y6      -0.518000
     25 O24         -5.8230    -0.6930     0.1910 o          1 5Y6      -0.518000
     26 N25         -3.5360    -1.8140    -0.2530 nh         1 5Y6      -0.719300
     27 C26         -3.8900    -2.6790    -1.3620 c3         1 5Y6       0.195100
     28 C28         -1.7680    -0.5660    -1.4560 ca         1 5Y6      -0.129000
     29 C29         -0.9130     0.5250    -1.4200 ca         1 5Y6      -0.050000
     30 O30          2.2540    -2.9090    -0.4420 os         1 5Y6      -0.421100
     31 H1           4.7230    -1.0830     0.3520 h1         1 5Y6       0.055700
     32 H2           3.7990    -1.5270     1.7900 h1         1 5Y6       0.055700
     33 H3           0.5360    -1.1180     0.2610 hc         1 5Y6       0.069200
     34 H4           1.4230    -1.5220     1.7320 hc         1 5Y6       0.069200
     35 H5           0.8510     0.9040     1.5650 h1         1 5Y6       0.045450
     36 H6           2.5730     0.6340     1.7150 h1         1 5Y6       0.045450
     37 H7          -1.6590     3.9970    -0.5230 h4         1 5Y6       0.029100
     38 H8          -1.8750     1.9470     1.5020 ha         1 5Y6       0.125000
     39 H9          -3.2040    -0.7780     2.5490 h1         1 5Y6       0.115700
     40 H10         -4.2690     0.5800     2.1070 h1         1 5Y6       0.115700
     41 H11          5.0030    -3.6030     0.9010 hn         1 5Y6       0.348500
     42 H12          3.0640     1.3000    -1.9350 h1         1 5Y6       0.045450
     43 H13          3.9950     0.8600    -0.5140 h1         1 5Y6       0.045450
     44 H14          3.6500    -1.1170    -1.9040 hc         1 5Y6       0.069200
     45 H15          1.9070    -0.8380    -1.9630 hc         1 5Y6       0.069200
     46 H16          2.0370     5.7860    -0.6940 h4         1 5Y6       0.035100
     47 H17         -2.9920    -3.1740    -1.7240 h1         1 5Y6       0.056700
     48 H18         -4.5710    -3.4540    -1.0170 h1         1 5Y6       0.056700
     49 H19         -4.3540    -2.1330    -2.1860 h1         1 5Y6       0.056700
     50 H20         -1.7390    -1.2510    -2.2930 ha         1 5Y6       0.132000
     51 H21         -0.2220     0.6750    -2.2400 ha         1 5Y6       0.124000
@<TRIPOS>BOND
     1     1    14 2   
     2     1    15 1   
     3     1    30 1   
     4     2     3 1   
     5     2    15 1   
     6     2    31 1   
     7     2    32 1   
     8     3     4 1   
     9     3    18 1   
    10     3    30 1   
    11     4     5 1   
    12     4    33 1   
    13     4    34 1   
    14     5    16 1   
    15     5    35 1   
    16     5    36 1   
    17     6     7 ar  
    18     6     9 ar  
    19     6    16 1   
    20     7    19 1   
    21     7    20 ar  
    22     8     9 ar  
    23     8    21 ar  
    24     8    37 1   
    25     9    10 1   
    26    10    11 ar  
    27    10    29 ar  
    28    11    22 ar  
    29    11    38 1   
    30    12    22 1   
    31    12    23 1   
    32    12    39 1   
    33    12    40 1   
    34    13    22 ar  
    35    13    26 1   
    36    13    28 ar  
    37    15    41 1   
    38    16    17 1   
    39    17    18 1   
    40    17    42 1   
    41    17    43 1   
    42    18    44 1   
    43    18    45 1   
    44    20    21 ar  
    45    20    46 1   
    46    23    24 2   
    47    23    25 2   
    48    23    26 1   
    49    26    27 1   
    50    27    47 1   
    51    27    48 1   
    52    27    49 1   
    53    28    29 ar  
    54    28    50 1   
    55    29    51 1   
@<TRIPOS>SUBSTRUCTURE
     1 5Y6         1 TEMP              0 ****  ****    0 ROOT
