@<TRIPOS>MOLECULE
5Y6
   51    55     1     0     0
SMALL
No Charge or Current Charge


@<TRIPOS>ATOM
      1 C2           3.5800    -3.7850    -0.2570 c          1 5Y6       0.696100
      2 C4           4.1660    -1.7090     0.6690 c5         1 5Y6       0.075000
      3 C5           2.7590    -1.6550    -0.0170 c5         1 5Y6       0.173000
      4 C6           1.6400    -1.0680     0.8800 c6         1 5Y6      -0.095900
      5 C7           1.8330     0.4460     1.1140 c6         1 5Y6       0.236300
      6 C11          1.3470     2.4650    -0.3120 ca         1 5Y6       0.371000
      7 C12          2.1590     3.6260    -0.3130 ca         1 5Y6       0.011000
      8 C16         -0.5700     3.9470    -0.4410 ca         1 5Y6       0.360900
      9 C17         -0.0640     2.6300    -0.3740 cp         1 5Y6      -0.113000
     10 C18         -1.0120     1.4740    -0.3760 cp         1 5Y6      -0.060000
     11 C19         -2.0590     1.3980     0.5770 ca         1 5Y6      -0.043000
     12 C21         -4.0800     0.0900     1.5450 c5         1 5Y6      -0.244100
     13 C27         -2.7960    -0.7160    -0.3700 ca         1 5Y6       0.282000
     14 O1           3.6740    -4.9520    -0.5930 o          1 5Y6      -0.536000
     15 N3           4.5930    -3.0320     0.2450 ns         1 5Y6      -0.544900
     16 N8           1.9160     1.1680    -0.1810 nh         1 5Y6      -0.866400
     17 C9           2.9330     0.6540    -1.1350 c6         1 5Y6       0.236300
     18 C10          2.7540    -0.8660    -1.3560 c6         1 5Y6      -0.095900
     19 Cl           3.9260     3.5710    -0.1600 cl         1 5Y6      -0.189000
     20 C14          1.5380     4.8830    -0.3930 ca         1 5Y6       0.365900
     21 N15          0.2000     5.0550    -0.4560 nb         1 5Y6      -0.664000
     22 C20         -2.9360     0.3010     0.5710 ca         1 5Y6      -0.128300
     23 S22         -5.0690    -1.3000     0.7850 s6         1 5Y6       1.163100
     24 O23         -5.2920    -2.4020     1.7270 o          1 5Y6      -0.518000
     25 O24         -6.1380    -0.8040    -0.0890 o          1 5Y6      -0.518000
     26 N25         -3.7390    -1.7360    -0.2280 nh         1 5Y6      -0.719300
     27 C26         -3.9450    -2.7920    -1.2330 c3         1 5Y6       0.195100
     28 C28         -1.7730    -0.6640    -1.3290 ca         1 5Y6      -0.129000
     29 C29         -0.8910     0.4320    -1.3310 ca         1 5Y6      -0.050000
     30 O30          2.4480    -3.0350    -0.3070 os         1 5Y6      -0.421100
     31 H1           4.8410    -0.9160     0.3200 h1         1 5Y6       0.055700
     32 H2           4.0910    -1.6410     1.7620 h1         1 5Y6       0.055700
     33 H3           0.6610    -1.2410     0.4150 hc         1 5Y6       0.069200
     34 H4           1.6190    -1.5880     1.8460 hc         1 5Y6       0.069200
     35 H5           0.9870     0.8230     1.7090 h1         1 5Y6       0.045450
     36 H6           2.7470     0.6200     1.7000 h1         1 5Y6       0.045450
     37 H7          -1.6450     4.1160    -0.4940 h4         1 5Y6       0.029100
     38 H8          -2.1770     2.1800     1.3230 ha         1 5Y6       0.125000
     39 H9          -3.7400    -0.2630     2.5240 h1         1 5Y6       0.115700
     40 H10         -4.7480     0.9510     1.6480 h1         1 5Y6       0.115700
     41 H11          5.5040    -3.4550     0.3790 hn         1 5Y6       0.348500
     42 H12          2.8420     1.1670    -2.1040 h1         1 5Y6       0.045450
     43 H13          3.9460     0.8490    -0.7550 h1         1 5Y6       0.045450
     44 H14          3.5500    -1.2350    -2.0150 hc         1 5Y6       0.069200
     45 H15          1.8080    -1.0450    -1.8840 hc         1 5Y6       0.069200
     46 H16          2.1380     5.7920    -0.3910 h4         1 5Y6       0.035100
     47 H17         -3.0190    -3.3610    -1.3880 h1         1 5Y6       0.056700
     48 H18         -4.7200    -3.4990    -0.9090 h1         1 5Y6       0.056700
     49 H19         -4.2590    -2.3560    -2.1910 h1         1 5Y6       0.056700
     50 H20         -1.6570    -1.4560    -2.0620 ha         1 5Y6       0.132000
     51 H21         -0.1010     0.4790    -2.0760 ha         1 5Y6       0.124000
@<TRIPOS>BOND
     1     1    14 2   
     2     1    15 1   
     3     1    30 1   
     4     2     3 1   
     5     2    15 1   
     6     2    31 1   
     7     2    32 1   
     8     3     4 1   
     9     3    18 1   
    10     3    30 1   
    11     4     5 1   
    12     4    33 1   
    13     4    34 1   
    14     5    16 1   
    15     5    35 1   
    16     5    36 1   
    17     6     7 ar  
    18     6     9 ar  
    19     6    16 1   
    20     7    19 1   
    21     7    20 ar  
    22     8     9 ar  
    23     8    21 ar  
    24     8    37 1   
    25     9    10 1   
    26    10    11 ar  
    27    10    29 ar  
    28    11    22 ar  
    29    11    38 1   
    30    12    22 1   
    31    12    23 1   
    32    12    39 1   
    33    12    40 1   
    34    13    22 ar  
    35    13    26 1   
    36    13    28 ar  
    37    15    41 1   
    38    16    17 1   
    39    17    18 1   
    40    17    42 1   
    41    17    43 1   
    42    18    44 1   
    43    18    45 1   
    44    20    21 ar  
    45    20    46 1   
    46    23    24 2   
    47    23    25 2   
    48    23    26 1   
    49    26    27 1   
    50    27    47 1   
    51    27    48 1   
    52    27    49 1   
    53    28    29 ar  
    54    28    50 1   
    55    29    51 1   
@<TRIPOS>SUBSTRUCTURE
     1 5Y6         1 TEMP              0 ****  ****    0 ROOT
