@<TRIPOS>MOLECULE
5Y7
   64    68     1     0     0
SMALL
No Charge or Current Charge


@<TRIPOS>ATOM
      1 C1           2.9070    17.6010    16.2160 c3         1 5Y7       0.144900
      2 C3           4.4820    17.1520    14.4330 c3         1 5Y7       0.158600
      3 C4           4.9830    16.0230    13.4870 c3         1 5Y7       0.185800
      4 C6           3.3810    16.4990    11.5940 c5         1 5Y7       0.172800
      5 C7           2.6560    15.6520    10.5060 c5         1 5Y7      -0.077400
      6 C8           2.9930    14.1830    10.8870 c5         1 5Y7      -0.077400
      7 C11          5.9370    13.3890     9.8750 c6         1 5Y7       0.224300
      8 C15          6.9880    11.1180    10.2680 ca         1 5Y7       0.366000
      9 C16          7.9820    10.6450    11.1560 ca         1 5Y7       0.032000
     10 C18          8.8730     9.6560    10.7120 ca         1 5Y7       0.361900
     11 C21          6.9370    10.5610     8.9570 cp         1 5Y7      -0.142000
     12 C23          4.5330    10.7990     8.2050 ca         1 5Y7      -0.036000
     13 C24          3.5850    11.2240     7.2630 ca         1 5Y7      -0.122300
     14 O28          0.4120    11.5390     5.2490 o          1 5Y7      -0.526500
     15 C30          3.0800    12.9990     4.0370 c3         1 5Y7       0.202100
     16 C31          3.9880    11.7910     6.0580 ca         1 5Y7       0.275000
     17 C32          5.3520    11.9330     5.7560 ca         1 5Y7      -0.126000
     18 C33          6.3110    11.5170     6.7000 ca         1 5Y7      -0.066000
     19 O2           3.4560    16.6350    15.3060 os         1 5Y7      -0.449000
     20 N5           3.9760    15.4910    12.5140 n3         1 5Y7      -0.740600
     21 C9           4.3430    14.3220    11.6560 c5         1 5Y7       0.206200
     22 C10          5.5960    14.6070    10.7620 c6         1 5Y7      -0.087900
     23 N12          6.1130    12.1560    10.6930 nh         1 5Y7      -0.839400
     24 C13          4.9980    11.8540    11.6320 c6         1 5Y7       0.224300
     25 C14          4.6810    13.0760    12.5220 c6         1 5Y7      -0.087900
     26 Cl           8.1650    11.2880    12.8010 cl         1 5Y7      -0.187000
     27 N19          8.8430     9.1260     9.4690 nb         1 5Y7      -0.669000
     28 C20          7.8950     9.5790     8.6230 ca         1 5Y7       0.362900
     29 C22          5.9160    10.9600     7.9430 cp         1 5Y7      -0.054000
     30 C25          2.0800    11.1290     7.4310 c5         1 5Y7      -0.247100
     31 S26          1.4110    12.2250     6.0770 s6         1 5Y7       1.183100
     32 O27          1.2220    13.6080     6.5270 o          1 5Y7      -0.526500
     33 N29          2.9200    12.1620     5.2370 nh         1 5Y7      -0.733300
     34 H1           2.1370    17.1380    16.8460 h1         1 5Y7       0.027033
     35 H2           3.6880    18.0060    16.8730 h1         1 5Y7       0.027033
     36 H3           2.4460    18.4340    15.6690 h1         1 5Y7       0.027033
     37 H4           5.3320    17.5160    15.0240 h1         1 5Y7       0.021200
     38 H5           4.1020    17.9930    13.8390 h1         1 5Y7       0.021200
     39 H6           5.8480    16.4190    12.9400 h1         1 5Y7       0.039700
     40 H7           5.3580    15.2150    14.1270 h1         1 5Y7       0.039700
     41 H8           4.1540    17.1340    11.1390 h1         1 5Y7       0.032700
     42 H9           2.6800    17.1610    12.1210 h1         1 5Y7       0.032700
     43 H10          1.5750    15.8300    10.5000 hc         1 5Y7       0.052700
     44 H11          3.0270    15.9040     9.5060 hc         1 5Y7       0.052700
     45 H12          2.2130    13.7670    11.5360 hc         1 5Y7       0.045700
     46 H13          3.0530    13.5310    10.0090 hc         1 5Y7       0.045700
     47 H14          5.1380    13.2500     9.1340 h1         1 5Y7       0.039450
     48 H15          6.8610    13.6060     9.3190 h1         1 5Y7       0.039450
     49 H16          9.6510     9.2800    11.3750 h4         1 5Y7       0.035100
     50 H17          4.2050    10.3540     9.1400 ha         1 5Y7       0.128000
     51 H19          2.1160    13.1540     3.5330 h1         1 5Y7       0.055367
     52 H20          3.4880    13.9830     4.3050 h1         1 5Y7       0.055367
     53 H21          3.7570    12.5170     3.3200 h1         1 5Y7       0.055367
     54 H22          5.6700    12.3650     4.8130 ha         1 5Y7       0.129000
     55 H23          7.3680    11.6440     6.4770 ha         1 5Y7       0.124000
     56 H25          6.4670    14.8300    11.3910 hc         1 5Y7       0.058200
     57 H26          5.4480    15.4820    10.1180 hc         1 5Y7       0.058200
     58 H27          4.0970    11.5680    11.0730 h1         1 5Y7       0.039450
     59 H28          5.2610    11.0050    12.2790 h1         1 5Y7       0.039450
     60 H29          5.5520    13.2690    13.1600 hc         1 5Y7       0.058200
     61 H30          3.8460    12.8390    13.1930 hc         1 5Y7       0.058200
     62 H31          7.8890     9.1280     7.6320 h4         1 5Y7       0.024100
     63 H33          1.6960    10.1220     7.2400 h1         1 5Y7       0.116700
     64 H34          1.7080    11.5200     8.3840 h1         1 5Y7       0.116700
@<TRIPOS>BOND
     1     1    19 1   
     2     1    34 1   
     3     1    35 1   
     4     1    36 1   
     5     2     3 1   
     6     2    19 1   
     7     2    37 1   
     8     2    38 1   
     9     3    20 1   
    10     3    39 1   
    11     3    40 1   
    12     4     5 1   
    13     4    20 1   
    14     4    41 1   
    15     4    42 1   
    16     5     6 1   
    17     5    43 1   
    18     5    44 1   
    19     6    21 1   
    20     6    45 1   
    21     6    46 1   
    22     7    22 1   
    23     7    23 1   
    24     7    47 1   
    25     7    48 1   
    26     8     9 ar  
    27     8    11 ar  
    28     8    23 1   
    29     9    10 ar  
    30     9    26 1   
    31    10    27 ar  
    32    10    49 1   
    33    11    28 ar  
    34    11    29 1   
    35    12    13 ar  
    36    12    29 ar  
    37    12    50 1   
    38    13    16 ar  
    39    13    30 1   
    40    14    31 2   
    41    15    33 1   
    42    15    51 1   
    43    15    52 1   
    44    15    53 1   
    45    16    17 ar  
    46    16    33 1   
    47    17    18 ar  
    48    17    54 1   
    49    18    29 ar  
    50    18    55 1   
    51    20    21 1   
    52    21    22 1   
    53    21    25 1   
    54    22    56 1   
    55    22    57 1   
    56    23    24 1   
    57    24    25 1   
    58    24    58 1   
    59    24    59 1   
    60    25    60 1   
    61    25    61 1   
    62    27    28 ar  
    63    28    62 1   
    64    30    31 1   
    65    30    63 1   
    66    30    64 1   
    67    31    32 2   
    68    31    33 1   
@<TRIPOS>SUBSTRUCTURE
     1 5Y7         1 TEMP              0 ****  ****    0 ROOT
