@<TRIPOS>MOLECULE
5Y7
   64    68     1     0     0
SMALL
abcg2


@<TRIPOS>ATOM
      1 C1           3.8750    17.0320    16.3530 c3         1 5Y7       0.144900
      2 C3           4.6770    17.1770    14.1420 c3         1 5Y7       0.158600
      3 C4           5.0450    16.3540    12.9210 c3         1 5Y7       0.185800
      4 C6           3.0070    16.5480    11.5660 c5         1 5Y7       0.172800
      5 C7           2.0040    15.5580    10.9920 c5         1 5Y7      -0.077400
      6 C8           2.8700    14.3320    10.6540 c5         1 5Y7      -0.077400
      7 C11          5.6920    13.3330     9.8170 c6         1 5Y7       0.224300
      8 C15          6.7510    11.1870    10.4610 ca         1 5Y7       0.366000
      9 C16          7.5960    10.6400    11.4470 ca         1 5Y7       0.032000
     10 C18          8.5220     9.6580    11.1350 ca         1 5Y7       0.361900
     11 C21          6.8920    10.6290     9.1680 cp         1 5Y7      -0.142000
     12 C23          4.5920    10.7710     8.2260 ca         1 5Y7      -0.036000
     13 C24          3.7180    11.1460     7.2300 ca         1 5Y7      -0.122300
     14 O28          0.6600    11.7100     5.1210 o          1 5Y7      -0.526500
     15 C30          3.4090    13.0060     4.0360 c3         1 5Y7       0.202100
     16 C31          4.1970    11.7450     6.0550 ca         1 5Y7       0.275000
     17 C32          5.5590    11.9370     5.8660 ca         1 5Y7      -0.126000
     18 C33          6.4320    11.5360     6.8750 ca         1 5Y7      -0.066000
     19 O2           4.2520    16.3180    15.1900 os         1 5Y7      -0.449000
     20 N5           3.9050    15.6840    12.3210 n3         1 5Y7      -0.740600
     21 C9           4.1700    14.4750    11.5010 c5         1 5Y7       0.206200
     22 C10          5.3990    14.6200    10.5820 c6         1 5Y7      -0.087900
     23 N12          5.9000    12.2410    10.7660 nh         1 5Y7      -0.839400
     24 C13          4.7640    12.0090    11.6600 c6         1 5Y7       0.224300
     25 C14          4.4000    13.2740    12.4260 c6         1 5Y7      -0.087900
     26 CL           7.5820    11.2570    13.0800 cl         1 5Y7      -0.187000
     27 N19          8.6820     9.1820     9.8990 nb         1 5Y7      -0.669000
     28 C20          7.8790     9.6690     8.9530 ca         1 5Y7       0.362900
     29 C22          5.9680    10.9780     8.0640 cp         1 5Y7      -0.054000
     30 C25          2.2220    11.0280     7.2450 c5         1 5Y7      -0.247100
     31 S26          1.7130    12.2020     5.9780 s6         1 5Y7       1.183100
     32 O27          1.5250    13.5160     6.5560 o          1 5Y7      -0.526500
     33 N29          3.1770    12.1050     5.1590 nh         1 5Y7      -0.733300
     34 H1           3.5620    16.3020    17.0990 h1         1 5Y7       0.027033
     35 H2           4.7140    17.6160    16.7510 h1         1 5Y7       0.027033
     36 H3           3.0420    17.7140    16.1460 h1         1 5Y7       0.027033
     37 H4           5.5570    17.7490    14.4640 h1         1 5Y7       0.021200
     38 H5           3.8830    17.8960    13.9080 h1         1 5Y7       0.021200
     39 H6           5.5550    17.0240    12.2100 h1         1 5Y7       0.039700
     40 H7           5.7750    15.6050    13.2320 h1         1 5Y7       0.039700
     41 H8           3.5320    17.0910    10.7600 h1         1 5Y7       0.032700
     42 H9           2.5460    17.2930    12.2150 h1         1 5Y7       0.032700
     43 H10          1.2650    15.3060    11.7550 hc         1 5Y7       0.052700
     44 H11          1.4740    15.9480    10.1230 hc         1 5Y7       0.052700
     45 H12          2.3510    13.3990    10.8680 hc         1 5Y7       0.045700
     46 H13          3.1140    14.3200     9.5920 hc         1 5Y7       0.045700
     47 H14          4.8710    13.1220     9.1250 h1         1 5Y7       0.039450
     48 H15          6.5970    13.4490     9.2220 h1         1 5Y7       0.039450
     49 H16          9.1700     9.2680    11.9110 h4         1 5Y7       0.035100
     50 H17          4.2130    10.3330     9.1400 ha         1 5Y7       0.128000
     51 H19          2.4730    13.1490     3.4990 h1         1 5Y7       0.055367
     52 H20          3.7920    13.9750     4.3670 h1         1 5Y7       0.055367
     53 H21          4.1260    12.5440     3.3580 h1         1 5Y7       0.055367
     54 H22          5.9380    12.4020     4.9660 ha         1 5Y7       0.129000
     55 H23          7.4940    11.7060     6.7480 ha         1 5Y7       0.124000
     56 H25          6.2780    14.8730    11.1770 hc         1 5Y7       0.058200
     57 H26          5.2390    15.4280     9.8640 hc         1 5Y7       0.058200
     58 H27          3.9020    11.6690    11.0690 h1         1 5Y7       0.039450
     59 H28          5.0110    11.2060    12.3500 h1         1 5Y7       0.039450
     60 H29          5.2090    13.5060    13.1230 hc         1 5Y7       0.058200
     61 H30          3.4960    13.0970    13.0130 hc         1 5Y7       0.058200
     62 H31          7.9930     9.2510     7.9590 h4         1 5Y7       0.024100
     63 H33          1.8640    10.0470     6.9290 h1         1 5Y7       0.116700
     64 H34          1.7520    11.3160     8.1830 h1         1 5Y7       0.116700
@<TRIPOS>BOND
     1     1    19 1   
     2     1    34 1   
     3     1    35 1   
     4     1    36 1   
     5     2     3 1   
     6     2    19 1   
     7     2    37 1   
     8     2    38 1   
     9     3    20 1   
    10     3    39 1   
    11     3    40 1   
    12     4     5 1   
    13     4    20 1   
    14     4    41 1   
    15     4    42 1   
    16     5     6 1   
    17     5    43 1   
    18     5    44 1   
    19     6    21 1   
    20     6    45 1   
    21     6    46 1   
    22     7    22 1   
    23     7    23 1   
    24     7    47 1   
    25     7    48 1   
    26     8     9 ar  
    27     8    11 ar  
    28     8    23 1   
    29     9    10 ar  
    30     9    26 1   
    31    10    27 ar  
    32    10    49 1   
    33    11    28 ar  
    34    11    29 1   
    35    12    13 ar  
    36    12    29 ar  
    37    12    50 1   
    38    13    16 ar  
    39    13    30 1   
    40    14    31 2   
    41    15    33 1   
    42    15    51 1   
    43    15    52 1   
    44    15    53 1   
    45    16    17 ar  
    46    16    33 1   
    47    17    18 ar  
    48    17    54 1   
    49    18    29 ar  
    50    18    55 1   
    51    20    21 1   
    52    21    22 1   
    53    21    25 1   
    54    22    56 1   
    55    22    57 1   
    56    23    24 1   
    57    24    25 1   
    58    24    58 1   
    59    24    59 1   
    60    25    60 1   
    61    25    61 1   
    62    27    28 ar  
    63    28    62 1   
    64    30    31 1   
    65    30    63 1   
    66    30    64 1   
    67    31    32 2   
    68    31    33 1   
@<TRIPOS>SUBSTRUCTURE
     1 5Y7         1 TEMP              0 ****  ****    0 ROOT
