@<TRIPOS>MOLECULE
5Y8
   52    56     1     0     0
SMALL
abcg2


@<TRIPOS>ATOM
      1 C1          -3.2750    14.0700    -5.4790 c3         1 5Y8       0.082900
      2 C4          -2.0370    12.4370    -8.3570 cc         1 5Y8       0.356800
      3 C5          -3.4150    12.1640    -8.5820 ca         1 5Y8      -0.233900
      4 C6          -4.1630    11.5020    -9.5630 ca         1 5Y8      -0.026000
      5 C7          -5.5430    11.4630    -9.4450 cp         1 5Y8      -0.061000
      6 C8          -6.1720    12.0670    -8.3270 ca         1 5Y8      -0.067000
      7 C11         -6.3620    10.7740   -10.4710 cp         1 5Y8      -0.184000
      8 C12         -7.1440     9.6900   -10.0920 ca         1 5Y8       0.408900
      9 N13         -7.8120     8.8930   -10.9240 nb         1 5Y8      -0.747000
     10 C16         -7.0210    10.2540   -12.7160 ca         1 5Y8      -0.031000
     11 C18         -6.3170    11.1010   -11.8490 ca         1 5Y8       0.400000
     12 C21         -4.3790    13.1880   -14.2160 c6         1 5Y8      -0.066900
     13 C23         -3.0930    14.8840   -12.7880 c5         1 5Y8      -0.090400
     14 C24         -2.2260    15.6010   -13.8330 c5         1 5Y8       0.101000
     15 N2          -3.1010    13.3290    -6.7100 na         1 5Y8       0.060600
     16 N3          -1.8690    13.1300    -7.2440 nd         1 5Y8      -0.513100
     17 C9          -5.4630    12.7190    -7.3390 ca         1 5Y8      -0.131000
     18 C10         -4.0710    12.7670    -7.4820 ca         1 5Y8      -0.033200
     19 C14         -7.7430     9.1490   -12.2370 ca         1 5Y8       0.615900
     20 N15         -8.3880     8.2770   -13.0750 nv         1 5Y8      -1.043900
     21 CL          -7.1120    10.6160   -14.4260 cl         1 5Y8      -0.202000
     22 N19         -5.6700    12.2260   -12.3550 nh         1 5Y8      -0.841400
     23 C20         -4.4980    12.0510   -13.2100 c6         1 5Y8       0.224800
     24 C22         -4.4120    14.5680   -13.5240 c5         1 5Y8      -0.134000
     25 N25         -3.2240    16.1840   -14.7200 ns         1 5Y8      -0.514900
     26 C26         -4.4500    15.6390   -14.6200 c          1 5Y8       0.559000
     27 O27         -5.4250    15.9310   -15.3100 o          1 5Y8      -0.555000
     28 C28         -5.6510    14.6440   -12.6280 c6         1 5Y8      -0.066900
     29 C29         -5.6870    13.4920   -11.6300 c6         1 5Y8       0.224800
     30 H1          -2.2910    14.3500    -5.1140 h1         1 5Y8       0.054700
     31 H2          -3.8660    14.9710    -5.6550 h1         1 5Y8       0.054700
     32 H3          -3.7780    13.4540    -4.7330 h1         1 5Y8       0.054700
     33 H4          -1.1850    12.1580    -8.9580 h4         1 5Y8       0.049800
     34 H5          -3.6720    11.0340   -10.4060 ha         1 5Y8       0.121000
     35 H6          -7.2520    12.0260    -8.2610 ha         1 5Y8       0.117000
     36 H7          -7.2020     9.4300    -9.0400 h4         1 5Y8       0.022100
     37 H9          -3.4530    13.0710   -14.7840 hc         1 5Y8       0.062950
     38 H10         -2.5990    14.0000   -12.3900 hc         1 5Y8       0.058700
     39 H11         -3.2930    15.5570   -11.9530 hc         1 5Y8       0.058700
     40 H12         -1.5830    14.9050   -14.3790 h1         1 5Y8       0.044700
     41 H13         -1.5970    16.3750   -13.3940 h1         1 5Y8       0.044700
     42 H14         -5.9650    13.1810    -6.4990 ha         1 5Y8       0.122000
     43 H15         -9.1020     7.7150   -12.6360 hn         1 5Y8       0.478500
     44 H16         -8.6140     8.6010   -14.0020 hn         1 5Y8       0.478500
     45 H17         -4.5710    11.1000   -13.7320 h1         1 5Y8       0.041950
     46 H18         -3.5940    12.0040   -12.5870 h1         1 5Y8       0.041950
     47 H19         -2.9940    16.8310   -15.4590 hn         1 5Y8       0.328500
     48 H20         -5.6570    15.5910   -12.0840 hc         1 5Y8       0.062950
     49 H21         -6.5440    14.6110   -13.2550 hc         1 5Y8       0.062950
     50 H22         -4.8410    13.5800   -10.9390 h1         1 5Y8       0.041950
     51 H23         -6.5980    13.5400   -11.0360 h1         1 5Y8       0.041950
     52 H8          -5.2120    13.1290   -14.9200 hc         1 5Y8       0.062950
@<TRIPOS>BOND
     1     1    15 1   
     2     1    30 1   
     3     1    31 1   
     4     1    32 1   
     5     2     3 1   
     6     2    16 2   
     7     2    33 1   
     8     3     4 ar  
     9     3    18 ar  
    10     4     5 ar  
    11     4    34 1   
    12     5     6 ar  
    13     5     7 1   
    14     6    17 ar  
    15     6    35 1   
    16     7     8 ar  
    17     7    11 ar  
    18     8     9 ar  
    19     8    36 1   
    20     9    19 ar  
    21    10    11 ar  
    22    10    19 ar  
    23    10    21 1   
    24    11    22 1   
    25    12    23 1   
    26    12    24 1   
    27    12    37 1   
    28    12    52 1   
    29    13    14 1   
    30    13    24 1   
    31    13    38 1   
    32    13    39 1   
    33    14    25 1   
    34    14    40 1   
    35    14    41 1   
    36    15    16 1   
    37    15    18 1   
    38    17    18 ar  
    39    17    42 1   
    40    19    20 1   
    41    20    43 1   
    42    20    44 1   
    43    22    23 1   
    44    22    29 1   
    45    23    45 1   
    46    23    46 1   
    47    24    26 1   
    48    24    28 1   
    49    25    26 1   
    50    25    47 1   
    51    26    27 2   
    52    28    29 1   
    53    28    48 1   
    54    28    49 1   
    55    29    50 1   
    56    29    51 1   
@<TRIPOS>SUBSTRUCTURE
     1 5Y8         1 TEMP              0 ****  ****    0 ROOT
