@<TRIPOS>MOLECULE
5Y8
   52    56     1     0     0
SMALL
No Charge or Current Charge


@<TRIPOS>ATOM
      1 C1          -3.2910    14.1100    -5.5400 c3         1 5Y8       0.082900
      2 C4          -1.9970    12.5230    -8.4540 cc         1 5Y8       0.356800
      3 C5          -3.3980    12.2150    -8.6100 ca         1 5Y8      -0.233900
      4 C6          -4.0970    11.5070    -9.5950 ca         1 5Y8      -0.026000
      5 C7          -5.5080    11.3880    -9.4650 cp         1 5Y8      -0.061000
      6 C8          -6.1460    11.9700    -8.3280 ca         1 5Y8      -0.067000
      7 C11         -6.3120    10.6600   -10.4930 cp         1 5Y8      -0.184000
      8 C12         -7.0750     9.5410   -10.0980 ca         1 5Y8       0.408900
      9 N13         -7.8130     8.7910   -10.9400 nb         1 5Y8      -0.747000
     10 C16         -7.1120    10.2430   -12.7530 ca         1 5Y8      -0.031000
     11 C18         -6.3390    11.0250   -11.8680 ca         1 5Y8       0.400000
     12 C21         -4.3120    13.1780   -14.2220 c6         1 5Y8      -0.066900
     13 C23         -3.1510    14.9440   -12.6750 c5         1 5Y8      -0.090400
     14 C24         -2.1590    15.5540   -13.6980 c5         1 5Y8       0.101000
     15 N2          -3.0360    13.3810    -6.7930 na         1 5Y8       0.060600
     16 N3          -1.7630    13.2400    -7.3410 nd         1 5Y8      -0.513100
     17 C9          -5.4060    12.6730    -7.3530 ca         1 5Y8      -0.131000
     18 C10         -4.0220    12.7730    -7.5420 ca         1 5Y8      -0.033200
     19 C14         -7.8070     9.1490   -12.2130 ca         1 5Y8       0.615900
     20 N15         -8.5930     8.3200   -12.9180 nv         1 5Y8      -1.043900
     21 Cl          -7.2600    10.6340   -14.4870 cl         1 5Y8      -0.202000
     22 N19         -5.6630    12.1700   -12.3690 nh         1 5Y8      -0.841400
     23 C20         -4.4360    12.0230   -13.1940 c6         1 5Y8       0.224800
     24 C22         -4.3920    14.5960   -13.5670 c5         1 5Y8      -0.134000
     25 N25         -3.0920    16.2730   -14.5560 ns         1 5Y8      -0.514900
     26 C26         -4.3240    15.6880   -14.6560 c          1 5Y8       0.559000
     27 O27         -5.2010    16.0900   -15.4040 o          1 5Y8      -0.555000
     28 C28         -5.7310    14.6330   -12.7660 c6         1 5Y8      -0.066900
     29 C29         -5.8180    13.4990   -11.7170 c6         1 5Y8       0.224800
     30 H1          -2.3500    14.5030    -5.1370 h1         1 5Y8       0.054700
     31 H2          -3.9760    14.9440    -5.7360 h1         1 5Y8       0.054700
     32 H3          -3.7430    13.4310    -4.8080 h1         1 5Y8       0.054700
     33 H4          -1.1460    12.2740    -9.0750 h4         1 5Y8       0.049800
     34 H5          -3.5750    11.0620   -10.4380 ha         1 5Y8       0.121000
     35 H6          -7.2240    11.8820    -8.2150 ha         1 5Y8       0.117000
     36 H7          -7.0820     9.2270    -9.0550 h4         1 5Y8       0.022100
     37 H9          -3.3710    13.0670   -14.7790 hc         1 5Y8       0.062950
     38 H10         -2.7280    14.0880   -12.1390 hc         1 5Y8       0.058700
     39 H11         -3.4090    15.6940   -11.9180 hc         1 5Y8       0.058700
     40 H12         -1.6190    14.7750   -14.2550 h1         1 5Y8       0.044700
     41 H13         -1.4240    16.2130   -13.2180 h1         1 5Y8       0.044700
     42 H14         -5.8960    13.1220    -6.4920 ha         1 5Y8       0.122000
     43 H15         -9.2260     7.7570   -12.3630 hn         1 5Y8       0.478500
     44 H16         -8.9350     8.6500   -13.8140 hn         1 5Y8       0.478500
     45 H17         -4.4500    11.0670   -13.7370 h1         1 5Y8       0.041950
     46 H18         -3.5460    12.0110   -12.5490 h1         1 5Y8       0.041950
     47 H19         -2.8600    17.0360   -15.1810 hn         1 5Y8       0.328500
     48 H20         -5.8460    15.6040   -12.2650 hc         1 5Y8       0.062950
     49 H21         -6.5820    14.5440   -13.4560 hc         1 5Y8       0.062950
     50 H22         -5.0370    13.6500   -10.9580 h1         1 5Y8       0.041950
     51 H23         -6.7900    13.5610   -11.2060 h1         1 5Y8       0.041950
     52 H8          -5.1150    13.0730   -14.9650 hc         1 5Y8       0.062950
@<TRIPOS>BOND
     1     1    15 1   
     2     1    30 1   
     3     1    31 1   
     4     1    32 1   
     5     2     3 1   
     6     2    16 2   
     7     2    33 1   
     8     3     4 ar  
     9     3    18 ar  
    10     4     5 ar  
    11     4    34 1   
    12     5     6 ar  
    13     5     7 1   
    14     6    17 ar  
    15     6    35 1   
    16     7     8 ar  
    17     7    11 ar  
    18     8     9 ar  
    19     8    36 1   
    20     9    19 ar  
    21    10    11 ar  
    22    10    19 ar  
    23    10    21 1   
    24    11    22 1   
    25    12    23 1   
    26    12    24 1   
    27    12    37 1   
    28    12    52 1   
    29    13    14 1   
    30    13    24 1   
    31    13    38 1   
    32    13    39 1   
    33    14    25 1   
    34    14    40 1   
    35    14    41 1   
    36    15    16 1   
    37    15    18 1   
    38    17    18 ar  
    39    17    42 1   
    40    19    20 1   
    41    20    43 1   
    42    20    44 1   
    43    22    23 1   
    44    22    29 1   
    45    23    45 1   
    46    23    46 1   
    47    24    26 1   
    48    24    28 1   
    49    25    26 1   
    50    25    47 1   
    51    26    27 2   
    52    28    29 1   
    53    28    48 1   
    54    28    49 1   
    55    29    50 1   
    56    29    51 1   
@<TRIPOS>SUBSTRUCTURE
     1 5Y8         1 TEMP              0 ****  ****    0 ROOT
