@<TRIPOS>MOLECULE
5Y9
   15    14     1     0     0
SMALL
No Charge or Current Charge


@<TRIPOS>ATOM
      1 C01         -1.6680     0.9710     0.0750 c3         1 5Y9       0.088300
      2 N02         -0.6590    -0.1120     0.0510 n          1 5Y9      -0.411800
      3 C03         -1.1270    -1.5030     0.2570 c3         1 5Y9       0.088300
      4 C04          0.7050     0.1930    -0.1620 c          1 5Y9       0.600100
      5 C05          1.7270    -0.9480    -0.1820 c3         1 5Y9      -0.175100
      6 O06          1.0720     1.3500    -0.3300 o          1 5Y9      -0.604100
      7 H1          -1.6640     1.5000    -0.8870 h1         1 5Y9       0.039367
      8 H2          -2.6740     0.5680     0.2500 h1         1 5Y9       0.039367
      9 H3          -1.4290     1.6810     0.8770 h1         1 5Y9       0.039367
     10 H4          -0.8800    -2.1130    -0.6220 h1         1 5Y9       0.039367
     11 H5          -0.6440    -1.9320     1.1440 h1         1 5Y9       0.039367
     12 H6          -2.2130    -1.5310     0.4050 h1         1 5Y9       0.039367
     13 H7           1.4310    -1.6870    -0.9340 hc         1 5Y9       0.059367
     14 H8           2.7490    -0.5930    -0.3550 hc         1 5Y9       0.059367
     15 H9           1.6560    -1.5140     0.7530 hc         1 5Y9       0.059367
@<TRIPOS>BOND
     1     1     2 1   
     2     1     7 1   
     3     1     8 1   
     4     1     9 1   
     5     2     3 1   
     6     2     4 1   
     7     3    10 1   
     8     3    11 1   
     9     3    12 1   
    10     4     5 1   
    11     4     6 2   
    12     5    13 1   
    13     5    14 1   
    14     5    15 1   
@<TRIPOS>SUBSTRUCTURE
     1 5Y9         1 TEMP              0 ****  ****    0 ROOT
