@<TRIPOS>MOLECULE
5Y9
   15    14     1     0     0
SMALL
abcg2


@<TRIPOS>ATOM
      1 C01         -1.6140     0.9280    -0.0050 c3         1 5Y9       0.088300
      2 N02         -0.6220    -0.1220     0.1050 n          1 5Y9      -0.411800
      3 C03         -1.1350    -1.4750     0.1390 c3         1 5Y9       0.088300
      4 C04          0.6810     0.1880    -0.0610 c          1 5Y9       0.600100
      5 C05          1.6850    -0.9410    -0.0060 c3         1 5Y9      -0.175100
      6 O06          1.0460     1.3450    -0.2390 o          1 5Y9      -0.604100
      7 H1          -1.8650     1.1470    -1.0460 h1         1 5Y9       0.039367
      8 H2          -2.5230     0.6090     0.5010 h1         1 5Y9       0.039367
      9 H3          -1.2680     1.8440     0.4650 h1         1 5Y9       0.039367
     10 H4          -1.5580    -1.7690    -0.8250 h1         1 5Y9       0.039367
     11 H5          -0.3630    -2.1910     0.4030 h1         1 5Y9       0.039367
     12 H6          -1.9230    -1.5510     0.8890 h1         1 5Y9       0.039367
     13 H7           1.5150    -1.6700    -0.8000 hc         1 5Y9       0.059367
     14 H8           2.6850    -0.5320    -0.1220 hc         1 5Y9       0.059367
     15 H9           1.6420    -1.4800     0.9420 hc         1 5Y9       0.059367
@<TRIPOS>BOND
     1     1     2 1   
     2     1     7 1   
     3     1     8 1   
     4     1     9 1   
     5     2     3 1   
     6     2     4 1   
     7     3    10 1   
     8     3    11 1   
     9     3    12 1   
    10     4     5 1   
    11     4     6 2   
    12     5    13 1   
    13     5    14 1   
    14     5    15 1   
@<TRIPOS>SUBSTRUCTURE
     1 5Y9         1 TEMP              0 ****  ****    0 ROOT
