@<TRIPOS>MOLECULE
5YA
   33    35     1     0     0
SMALL
abcg2


@<TRIPOS>ATOM
      1 C1           3.4080     2.3230    -0.4290 ca         1 5YA      -0.109000
      2 C2           2.0230     2.0790    -0.3680 ca         1 5YA      -0.091000
      3 C3           1.5260     0.8170    -0.1480 cp         1 5YA      -0.038000
      4 C4           2.4300    -0.2680     0.0530 ca         1 5YA      -0.019000
      5 C5           3.8280    -0.0180    -0.0180 ca         1 5YA      -0.039000
      6 C6           4.2930     1.2940    -0.2670 ca         1 5YA      -0.091000
      7 C7           2.0000    -1.5840     0.3540 ca         1 5YA      -0.102000
      8 C8           2.9020    -2.5950     0.5450 ca         1 5YA      -0.106000
      9 O1          -4.9270     1.1760     0.1950 o          1 5YA      -0.571100
     10 C9           4.2860    -2.3490     0.4470 ca         1 5YA      -0.107000
     11 C10          4.7360    -1.0860     0.1770 ca         1 5YA      -0.098000
     12 C11          0.0590     0.6210    -0.1280 cp         1 5YA      -0.012000
     13 C12         -0.7340     1.3500     0.7580 ca         1 5YA      -0.108500
     14 C13         -2.1110     1.2100     0.7570 ca         1 5YA      -0.073000
     15 N1          -4.6960    -0.9950    -0.3840 ns         1 5YA      -0.393400
     16 C14         -2.7280     0.3240    -0.1210 ca         1 5YA      -0.154600
     17 C15         -1.9430    -0.3970    -1.0190 ca         1 5YA      -0.073000
     18 C16         -0.5660    -0.2480    -1.0210 ca         1 5YA      -0.108500
     19 C17         -4.2170     0.2270    -0.0940 c          1 5YA       0.620700
     20 O2          -6.0310    -1.1870    -0.5500 oh         1 5YA      -0.414100
     21 H1           3.7640     3.3280    -0.6170 ha         1 5YA       0.117000
     22 H2           1.3360     2.9020    -0.5210 ha         1 5YA       0.118000
     23 H3           5.3600     1.4710    -0.3220 ha         1 5YA       0.115000
     24 H4           0.9430    -1.7930     0.4510 ha         1 5YA       0.117000
     25 H5           2.5510    -3.5920     0.7790 ha         1 5YA       0.113000
     26 H6           4.9890    -3.1570     0.5970 ha         1 5YA       0.114000
     27 H7           5.7980    -0.8840     0.1150 ha         1 5YA       0.114000
     28 H8          -0.2660     2.0290     1.4610 ha         1 5YA       0.124500
     29 H9          -2.7080     1.7850     1.4520 ha         1 5YA       0.125500
     30 H10         -4.1150    -1.7960    -0.5850 hn         1 5YA       0.341500
     31 H11         -2.3950    -1.0570    -1.7480 ha         1 5YA       0.125500
     32 H12          0.0260    -0.7960    -1.7440 ha         1 5YA       0.124500
     33 H13         -6.3810    -1.4470     0.3130 ho         1 5YA       0.439000
@<TRIPOS>BOND
     1     1     2 ar  
     2     1     6 ar  
     3     1    21 1   
     4     2     3 ar  
     5     2    22 1   
     6     3     4 ar  
     7     3    12 1   
     8     4     5 ar  
     9     4     7 ar  
    10     5     6 ar  
    11     5    11 ar  
    12     6    23 1   
    13     7     8 ar  
    14     7    24 1   
    15     8    10 ar  
    16     8    25 1   
    17     9    19 2   
    18    10    11 ar  
    19    10    26 1   
    20    11    27 1   
    21    12    13 ar  
    22    12    18 ar  
    23    13    14 ar  
    24    13    28 1   
    25    14    16 ar  
    26    14    29 1   
    27    15    19 1   
    28    15    20 1   
    29    15    30 1   
    30    16    17 ar  
    31    16    19 1   
    32    17    18 ar  
    33    17    31 1   
    34    18    32 1   
    35    20    33 1   
@<TRIPOS>SUBSTRUCTURE
     1 5YA         1 TEMP              0 ****  ****    0 ROOT
