@<TRIPOS>MOLECULE
5YA
   33    35     1     0     0
SMALL
No Charge or Current Charge


@<TRIPOS>ATOM
      1 C1           3.4160     2.2960    -0.6880 ca         1 5YA      -0.109000
      2 C2           2.0410     2.0580    -0.5460 ca         1 5YA      -0.091000
      3 C3           1.5490     0.7850    -0.1720 cp         1 5YA      -0.038000
      4 C4           2.4880    -0.2600     0.0810 ca         1 5YA      -0.019000
      5 C5           3.8770    -0.0130    -0.0700 ca         1 5YA      -0.039000
      6 C6           4.3320     1.2600    -0.4560 ca         1 5YA      -0.091000
      7 C7           2.0720    -1.5440     0.5040 ca         1 5YA      -0.102000
      8 C8           3.0110    -2.5610     0.7460 ca         1 5YA      -0.106000
      9 O1          -4.9180     0.7650     1.0510 o          1 5YA      -0.571100
     10 C9           4.3810    -2.3100     0.5760 ca         1 5YA      -0.107000
     11 C10          4.8130    -1.0370     0.1730 ca         1 5YA      -0.098000
     12 C11          0.0710     0.5930    -0.0680 cp         1 5YA      -0.012000
     13 C12         -0.6980     1.3870     0.8090 ca         1 5YA      -0.108500
     14 C13         -2.0910     1.2270     0.9000 ca         1 5YA      -0.073000
     15 N1          -4.8840    -0.7860    -0.6240 ns         1 5YA      -0.393400
     16 C14         -2.7640     0.2710     0.1050 ca         1 5YA      -0.154600
     17 C15         -1.9980    -0.5210    -0.7850 ca         1 5YA      -0.073000
     18 C16         -0.6040    -0.3550    -0.8700 ca         1 5YA      -0.108500
     19 C17         -4.2700     0.1250     0.2300 c          1 5YA       0.620700
     20 O2          -6.3270    -0.8260    -0.7650 oh         1 5YA      -0.414100
     21 H1           3.7710     3.2810    -0.9830 ha         1 5YA       0.117000
     22 H2           1.3410     2.8680    -0.7400 ha         1 5YA       0.118000
     23 H3           5.3970     1.4510    -0.5710 ha         1 5YA       0.115000
     24 H4           1.0210    -1.7670     0.6610 ha         1 5YA       0.117000
     25 H5           2.6760    -3.5440     1.0680 ha         1 5YA       0.113000
     26 H6           5.1070    -3.0970     0.7640 ha         1 5YA       0.114000
     27 H7           5.8770    -0.8460     0.0520 ha         1 5YA       0.114000
     28 H8          -0.2050     2.1320     1.4310 ha         1 5YA       0.124500
     29 H9          -2.6480     1.8560     1.5930 ha         1 5YA       0.125500
     30 H10         -4.3510    -1.1800    -1.3960 hn         1 5YA       0.341500
     31 H11         -2.4620    -1.2730    -1.4180 ha         1 5YA       0.125500
     32 H12         -0.0360    -0.9670    -1.5670 ha         1 5YA       0.124500
     33 H13         -6.5450    -1.7820    -0.6570 ho         1 5YA       0.439000
@<TRIPOS>BOND
     1     1     2 ar  
     2     1     6 ar  
     3     1    21 1   
     4     2     3 ar  
     5     2    22 1   
     6     3     4 ar  
     7     3    12 1   
     8     4     5 ar  
     9     4     7 ar  
    10     5     6 ar  
    11     5    11 ar  
    12     6    23 1   
    13     7     8 ar  
    14     7    24 1   
    15     8    10 ar  
    16     8    25 1   
    17     9    19 2   
    18    10    11 ar  
    19    10    26 1   
    20    11    27 1   
    21    12    13 ar  
    22    12    18 ar  
    23    13    14 ar  
    24    13    28 1   
    25    14    16 ar  
    26    14    29 1   
    27    15    19 1   
    28    15    20 1   
    29    15    30 1   
    30    16    17 ar  
    31    16    19 1   
    32    17    18 ar  
    33    17    31 1   
    34    18    32 1   
    35    20    33 1   
@<TRIPOS>SUBSTRUCTURE
     1 5YA         1 TEMP              0 ****  ****    0 ROOT
