@<TRIPOS>MOLECULE
5YB
   61    62     1     0     0
SMALL
bcc


@<TRIPOS>ATOM
      1 C26         53.7060   105.5690    73.6420 c          1 5YB       0.667700
      2 O27         54.5710   105.4350    72.7860 o          1 5YB      -0.601100
      3 C28         52.7070   104.4850    73.9000 ca         1 5YB      -0.121600
      4 C29         51.4290   104.7340    74.3910 ca         1 5YB      -0.103000
      5 C30         50.5290   103.6940    74.5720 ca         1 5YB      -0.110000
      6 C31         50.8890   102.3830    74.2720 ca         1 5YB      -0.142900
      7 C32         52.1710   102.1360    73.7850 ca         1 5YB      -0.110000
      8 C33         53.0620   103.1740    73.5860 ca         1 5YB      -0.103000
      9 C34         49.9460   101.2460    74.4680 ce         1 5YB       0.662800
     10 N35         50.4340   100.0900    74.7100 n2         1 5YB      -0.831100
     11 N36         48.6210   101.5730    74.4210 nv         1 5YB      -0.964800
     12 N25         53.6020   106.6710    74.4010 ns         1 5YB      -0.563900
     13 C24         54.4570   107.8250    74.2250 c3         1 5YB       0.109000
     14 C23         54.0140   108.6880    73.0500 c3         1 5YB      -0.184400
     15 C21         54.8380   109.9500    72.9180 c          1 5YB       0.661100
     16 O22         55.8760   110.1180    73.5450 o          1 5YB      -0.597100
     17 N20         54.3580   110.8500    72.0420 ns         1 5YB      -0.562900
     18 C15         55.0280   112.0980    71.7200 c3         1 5YB       0.048700
     19 C13         54.5080   113.1980    72.6520 c          1 5YB       0.676100
     20 O14         53.5800   113.9310    72.3310 o          1 5YB      -0.663100
     21 C16         54.8230   112.4580    70.2620 c3         1 5YB      -0.210400
     22 C17         55.5640   113.7410    69.8360 c          1 5YB       0.941600
     23 O18         55.2870   114.1840    68.7050 o          1 5YB      -0.841300
     24 O19         56.3890   114.2100    70.6460 o          1 5YB      -0.841300
     25 N12         55.1120   113.2420    73.8430 ns         1 5YB      -0.531900
     26 C08         54.8100   114.1750    74.8980 c3         1 5YB      -0.024300
     27 C09         55.9390   114.1280    75.9610 c          1 5YB       0.924600
     28 O10         56.8090   113.2460    75.8300 o          1 5YB      -0.837300
     29 C07         53.4320   113.9360    75.5440 c3         1 5YB      -0.042100
     30 C04         53.2390   112.5460    76.0790 ca         1 5YB      -0.019300
     31 C03         53.7270   112.1810    77.3340 ca         1 5YB      -0.114500
     32 C05         52.5650   111.5830    75.3300 ca         1 5YB      -0.114500
     33 C02         53.5490   110.8950    77.8260 ca         1 5YB      -0.148000
     34 C06         52.3760   110.2970    75.8210 ca         1 5YB      -0.148000
     35 C01         52.8700   109.9470    77.0710 ca         1 5YB      -0.170000
     36 O11         55.8610   114.9870    76.8580 o          1 5YB      -0.837300
     37 H291        51.1030   105.7410    74.6190 ha         1 5YB       0.148000
     38 H301        49.5460   103.9220    74.9620 ha         1 5YB       0.140500
     39 H321        52.4640   101.1220    73.5500 ha         1 5YB       0.140500
     40 H331        54.0460   102.9630    73.1880 ha         1 5YB       0.148000
     41 H351        49.7010    99.3910    74.7970 hn         1 5YB       0.361400
     42 H362        47.9590   100.8120    74.4140 hn         1 5YB       0.403300
     43 H361        48.3390   102.3550    73.8520 hn         1 5YB       0.403300
     44 H251        52.9220   106.7090    75.1410 hn         1 5YB       0.311500
     45 H242        55.4870   107.4970    74.0910 h1         1 5YB       0.078700
     46 H241        54.4180   108.3980    75.1500 h1         1 5YB       0.078700
     47 H231        52.9580   108.9490    73.1540 hc         1 5YB       0.052700
     48 H232        54.0970   108.1190    72.1200 hc         1 5YB       0.052700
     49 H201        53.4700   110.6660    71.5990 hn         1 5YB       0.295500
     50 H151        56.0920   111.9520    71.9050 h1         1 5YB       0.098700
     51 H161        55.1840   111.6270    69.6450 hc         1 5YB       0.020200
     52 H162        53.7580   112.5590    70.0360 hc         1 5YB       0.020200
     53 H121        55.8750   112.6110    74.0420 hn         1 5YB       0.354500
     54 H081        54.7900   115.1900    74.4840 h1         1 5YB       0.058700
     55 H071        53.3130   114.6690    76.3430 hc         1 5YB       0.046200
     56 H072        52.6570   114.1480    74.8060 hc         1 5YB       0.046200
     57 H031        54.2450   112.9180    77.9370 ha         1 5YB       0.145500
     58 H051        52.1700   111.8470    74.3560 ha         1 5YB       0.145500
     59 H021        53.9340   110.6350    78.8040 ha         1 5YB       0.101000
     60 H061        51.8380   109.5680    75.2280 ha         1 5YB       0.101000
     61 H011        52.7220   108.9460    77.4550 ha         1 5YB       0.093000
@<TRIPOS>BOND
     1     1     2 2   
     2     1     3 1   
     3     1    12 1   
     4     3     4 ar  
     5     3     8 ar  
     6     4     5 ar  
     7     4    37 1   
     8     5     6 ar  
     9     5    38 1   
    10     6     7 ar  
    11     6     9 1   
    12     7     8 ar  
    13     7    39 1   
    14     8    40 1   
    15     9    10 2   
    16     9    11 1   
    17    10    41 1   
    18    11    42 1   
    19    11    43 1   
    20    12    13 1   
    21    12    44 1   
    22    13    14 1   
    23    13    45 1   
    24    13    46 1   
    25    14    15 1   
    26    14    47 1   
    27    14    48 1   
    28    15    16 2   
    29    15    17 1   
    30    17    18 1   
    31    17    49 1   
    32    18    19 1   
    33    18    21 1   
    34    18    50 1   
    35    19    20 2   
    36    19    25 1   
    37    21    22 1   
    38    21    51 1   
    39    21    52 1   
    40    22    23 1   
    41    22    24 1   
    42    25    26 1   
    43    25    53 1   
    44    26    27 1   
    45    26    29 1   
    46    26    54 1   
    47    27    28 1   
    48    27    36 1   
    49    29    30 1   
    50    29    55 1   
    51    29    56 1   
    52    30    31 ar  
    53    30    32 ar  
    54    31    33 ar  
    55    31    57 1   
    56    32    34 ar  
    57    32    58 1   
    58    33    35 ar  
    59    33    59 1   
    60    34    35 ar  
    61    34    60 1   
    62    35    61 1   
@<TRIPOS>SUBSTRUCTURE
     1 5YB         1 TEMP              0 ****  ****    0 ROOT
