@<TRIPOS>MOLECULE
5YB
   61    62     1     0     0
SMALL
No Charge or Current Charge


@<TRIPOS>ATOM
      1 C26         53.4190   104.9970    73.6860 c          1 5YB       0.600700
      2 O27         54.5740   104.7540    73.3630 o          1 5YB      -0.601100
      3 C28         52.3550   103.9170    73.7530 ca         1 5YB      -0.121600
      4 C29         51.0190   104.1900    74.1340 ca         1 5YB      -0.085000
      5 C30         50.0600   103.1630    74.1830 ca         1 5YB      -0.092000
      6 C31         50.3970   101.8320    73.8410 ca         1 5YB      -0.142900
      7 C32         51.7360   101.5590    73.4830 ca         1 5YB      -0.092000
      8 C33         52.6960   102.5840    73.4330 ca         1 5YB      -0.085000
      9 C34         49.3890   100.7210    73.9210 ce         1 5YB       0.662800
     10 N35         49.7050    99.4920    73.9640 n2         1 5YB      -0.831100
     11 N36         48.0790   101.0400    73.8380 nv         1 5YB      -1.075200
     12 N25         53.0240   106.2790    74.0130 ns         1 5YB      -0.496900
     13 C24         53.8960   107.4570    73.9770 c3         1 5YB       0.109000
     14 C23         54.0410   108.0170    72.5500 c3         1 5YB      -0.184400
     15 C21         54.9270   109.2600    72.5560 c          1 5YB       0.594100
     16 O22         56.1400   109.2010    72.6910 o          1 5YB      -0.597100
     17 N20         54.2590   110.4490    72.3770 ns         1 5YB      -0.495900
     18 C15         54.8900   111.7870    72.3560 c3         1 5YB       0.048700
     19 C13         53.8920   112.8300    72.9470 c          1 5YB       0.609100
     20 O14         52.6740   112.7300    72.8260 o          1 5YB      -0.663100
     21 C16         55.3350   112.1250    70.9080 c3         1 5YB      -0.210400
     22 C17         56.1680   113.4120    70.8970 c          1 5YB       0.731000
     23 O18         55.5900   114.4680    70.6990 o          1 5YB      -0.736000
     24 O19         57.3590   113.3270    71.1490 o          1 5YB      -0.736000
     25 N12         54.4700   113.8520    73.6700 ns         1 5YB      -0.464900
     26 C08         53.7410   114.8490    74.4920 c3         1 5YB      -0.024300
     27 C09         54.6920   116.0050    74.9430 c          1 5YB       0.714000
     28 O10         55.8950   115.7870    75.0090 o          1 5YB      -0.732000
     29 C07         53.0080   114.2030    75.7010 c3         1 5YB      -0.042100
     30 C04         53.8260   113.1330    76.4240 ca         1 5YB      -0.019300
     31 C03         54.8180   113.5010    77.3530 ca         1 5YB      -0.096500
     32 C05         53.5950   111.7660    76.1680 ca         1 5YB      -0.096500
     33 C02         55.5760   112.5150    78.0110 ca         1 5YB      -0.130000
     34 C06         54.3540   110.7810    76.8240 ca         1 5YB      -0.130000
     35 C01         55.3450   111.1560    77.7450 ca         1 5YB      -0.152000
     36 O11         54.2060   117.1150    75.1110 o          1 5YB      -0.732000
     37 H291        50.7040   105.1950    74.4030 ha         1 5YB       0.130000
     38 H301        49.0510   103.4130    74.5030 ha         1 5YB       0.122500
     39 H321        52.0390   100.5450    73.2320 ha         1 5YB       0.122500
     40 H331        53.7150   102.3350    73.1430 ha         1 5YB       0.130000
     41 H351        48.8660    98.9580    74.2130 hn         1 5YB       0.361400
     42 H362        47.4740   100.3170    73.4690 hn         1 5YB       0.458500
     43 H361        47.8830   101.9760    73.5040 hn         1 5YB       0.458500
     44 H251        52.0560   106.4070    74.2750 hn         1 5YB       0.311500
     45 H242        54.8850   107.1900    74.3760 h1         1 5YB       0.078700
     46 H241        53.4690   108.2290    74.6330 h1         1 5YB       0.078700
     47 H231        53.0430   108.2630    72.1690 hc         1 5YB       0.052700
     48 H232        54.5060   107.2520    71.9190 hc         1 5YB       0.052700
     49 H201        53.2510   110.4000    72.2770 hn         1 5YB       0.295500
     50 H151        55.7710   111.7680    73.0120 h1         1 5YB       0.098700
     51 H161        55.9600   111.2810    70.5900 hc         1 5YB       0.020200
     52 H162        54.4200   112.2410    70.3130 hc         1 5YB       0.020200
     53 H121        55.4840   113.8800    73.7000 hn         1 5YB       0.354500
     54 H081        52.9840   115.3180    73.8510 h1         1 5YB       0.058700
     55 H071        52.7040   114.9890    76.4040 hc         1 5YB       0.046200
     56 H072        52.0720   113.7610    75.3400 hc         1 5YB       0.046200
     57 H031        55.0060   114.5510    77.5640 ha         1 5YB       0.127500
     58 H051        52.8290   111.4660    75.4560 ha         1 5YB       0.127500
     59 H021        56.3420   112.8070    78.7260 ha         1 5YB       0.083000
     60 H061        54.1720   109.7290    76.6190 ha         1 5YB       0.083000
     61 H011        55.9310   110.3940    78.2530 ha         1 5YB       0.075000
@<TRIPOS>BOND
     1     1     2 2   
     2     1     3 1   
     3     1    12 1   
     4     3     4 ar  
     5     3     8 ar  
     6     4     5 ar  
     7     4    37 1   
     8     5     6 ar  
     9     5    38 1   
    10     6     7 ar  
    11     6     9 1   
    12     7     8 ar  
    13     7    39 1   
    14     8    40 1   
    15     9    10 2   
    16     9    11 1   
    17    10    41 1   
    18    11    42 1   
    19    11    43 1   
    20    12    13 1   
    21    12    44 1   
    22    13    14 1   
    23    13    45 1   
    24    13    46 1   
    25    14    15 1   
    26    14    47 1   
    27    14    48 1   
    28    15    16 2   
    29    15    17 1   
    30    17    18 1   
    31    17    49 1   
    32    18    19 1   
    33    18    21 1   
    34    18    50 1   
    35    19    20 2   
    36    19    25 1   
    37    21    22 1   
    38    21    51 1   
    39    21    52 1   
    40    22    23 1   
    41    22    24 1   
    42    25    26 1   
    43    25    53 1   
    44    26    27 1   
    45    26    29 1   
    46    26    54 1   
    47    27    28 1   
    48    27    36 1   
    49    29    30 1   
    50    29    55 1   
    51    29    56 1   
    52    30    31 ar  
    53    30    32 ar  
    54    31    33 ar  
    55    31    57 1   
    56    32    34 ar  
    57    32    58 1   
    58    33    35 ar  
    59    33    59 1   
    60    34    35 ar  
    61    34    60 1   
    62    35    61 1   
@<TRIPOS>SUBSTRUCTURE
     1 5YB         1 TEMP              0 ****  ****    0 ROOT
