@<TRIPOS>MOLECULE
5YC
   37    39     1     0     0
SMALL
No Charge or Current Charge


@<TRIPOS>ATOM
      1 C4           0.9650     2.1280     0.4970 cc         1 5YC      -0.372200
      2 C14         -4.5130     0.1630    -0.3200 ca         1 5YC      -0.180500
      3 C5           2.3650     2.0320     0.0830 c          1 5YC       0.549000
      4 C6           1.9980    -0.3170     0.4870 cc         1 5YC      -0.029000
      5 C11         -3.6360    -2.4180     0.3430 ca         1 5YC      -0.073000
      6 C7           4.1800    -0.9510    -0.0980 cc         1 5YC       0.406700
      7 C8           5.4490    -1.6920    -0.4010 c3         1 5YC      -0.132400
      8 C9          -3.1790    -0.0260     0.0930 ca         1 5YC       0.348000
      9 C10         -2.7510    -1.3280     0.4230 ca         1 5YC      -0.180500
     10 C12         -4.9620    -2.2140    -0.0690 ca         1 5YC      -0.161000
     11 C13         -5.4020    -0.9230    -0.4010 ca         1 5YC      -0.073000
     12 N1           2.8230     0.7080     0.1050 n          1 5YC       0.069000
     13 N2           0.7270    -0.2430     0.8650 nd         1 5YC      -0.311600
     14 C3           0.1680     1.0480     0.8660 cd         1 5YC       0.165400
     15 N3           4.1140     0.3470    -0.2450 n2         1 5YC      -0.398800
     16 O            3.0430     3.0010    -0.2420 o          1 5YC      -0.484000
     17 S            2.7710    -1.8600     0.4450 ss         1 5YC      -0.019400
     18 C2          -1.2920     1.1890     1.2770 c3         1 5YC       0.281000
     19 N           -2.2860     1.0710     0.1680 nh         1 5YC      -0.831400
     20 C1          -2.2270     2.0860    -0.9090 c3         1 5YC       0.230800
     21 C           -1.6920     1.5240    -2.2370 c3         1 5YC      -0.117100
     22 H1           0.5680     3.1350     0.4940 ha         1 5YC       0.217000
     23 H3          -3.2920    -3.4180     0.5970 ha         1 5YC       0.106000
     24 H4           5.5350    -2.5910     0.2190 hc         1 5YC       0.068367
     25 H5           5.4720    -1.9990    -1.4530 hc         1 5YC       0.068367
     26 H6           6.3280    -1.0650    -0.2090 hc         1 5YC       0.068367
     27 H7          -1.7260    -1.5050     0.7290 ha         1 5YC       0.111500
     28 H8          -5.6480    -3.0560    -0.1310 ha         1 5YC       0.112000
     29 H9          -6.4300    -0.7630    -0.7180 ha         1 5YC       0.106000
     30 H11         -1.5040     0.4420     2.0550 h1         1 5YC       0.066200
     31 H12         -1.4150     2.1640     1.7680 h1         1 5YC       0.066200
     32 H13         -3.2220     2.5190    -1.0790 h1         1 5YC       0.044200
     33 H14         -1.5820     2.9210    -0.6040 h1         1 5YC       0.044200
     34 H15         -1.6480     2.3160    -2.9930 hc         1 5YC       0.041700
     35 H16         -0.6830     1.1170    -2.1040 hc         1 5YC       0.041700
     36 H17         -2.3440     0.7260    -2.6110 hc         1 5YC       0.041700
     37 H2          -4.8720     1.1560    -0.5680 ha         1 5YC       0.111500
@<TRIPOS>BOND
     1     1     3 1   
     2     1    14 2   
     3     1    22 1   
     4     2     8 ar  
     5     2    11 ar  
     6     2    37 1   
     7     3    12 1   
     8     3    16 2   
     9     4    12 1   
    10     4    13 2   
    11     4    17 1   
    12     5     9 ar  
    13     5    10 ar  
    14     5    23 1   
    15     6     7 1   
    16     6    15 2   
    17     6    17 1   
    18     7    24 1   
    19     7    25 1   
    20     7    26 1   
    21     8     9 ar  
    22     8    19 1   
    23     9    27 1   
    24    10    11 ar  
    25    10    28 1   
    26    11    29 1   
    27    12    15 1   
    28    13    14 1   
    29    14    18 1   
    30    18    19 1   
    31    18    30 1   
    32    18    31 1   
    33    19    20 1   
    34    20    21 1   
    35    20    32 1   
    36    20    33 1   
    37    21    34 1   
    38    21    35 1   
    39    21    36 1   
@<TRIPOS>SUBSTRUCTURE
     1 5YC         1 TEMP              0 ****  ****    0 ROOT
