@<TRIPOS>MOLECULE
5YC
   37    39     1     0     0
SMALL
bcc


@<TRIPOS>ATOM
      1 C4           1.0240     2.1710     1.0380 cc         1 5YC      -0.322200
      2 C14         -4.0030    -0.1900    -0.8330 ca         1 5YC      -0.198500
      3 C5           2.3990     1.9360     0.7120 c          1 5YC       0.624500
      4 C6           1.5790    -0.2820     0.1660 cc         1 5YC       0.166600
      5 C11         -3.5510    -2.2080     0.9960 ca         1 5YC      -0.091000
      6 C7           3.7950    -1.0310    -0.4890 cc         1 5YC       0.406700
      7 C8           4.9820    -1.7870    -0.9510 c3         1 5YC      -0.132400
      8 C9          -2.9930    -0.0050     0.1290 ca         1 5YC       0.209600
      9 C10         -2.7770    -1.0600     1.0350 ca         1 5YC      -0.198500
     10 C12         -4.5550    -2.3720     0.0500 ca         1 5YC      -0.179000
     11 C13         -4.7620    -1.3490    -0.8650 ca         1 5YC      -0.091000
     12 N1           2.6000     0.6150     0.2570 n          1 5YC       0.018300
     13 N2           0.3490    -0.0540     0.4680 nd         1 5YC      -0.311600
     14 C3           0.0760     1.2000     0.9120 cd         1 5YC       0.165400
     15 N3           3.8290     0.1900    -0.1110 n2         1 5YC      -0.398800
     16 O            3.3290     2.7130     0.7810 o          1 5YC      -0.559500
     17 S            2.2170    -1.7790    -0.4270 ss         1 5YC      -0.164300
     18 C2          -1.3660     1.4720     1.2540 c3         1 5YC       0.281000
     19 N           -2.2760     1.1710     0.1820 nh         1 5YC      -0.693000
     20 C1          -2.2780     2.1020    -0.9320 c3         1 5YC       0.230800
     21 C           -1.5370     1.6070    -2.1680 c3         1 5YC      -0.117100
     22 H1           0.7570     3.1610     1.3830 ha         1 5YC       0.167000
     23 H3          -3.3490    -2.9940     1.7130 ha         1 5YC       0.124000
     24 H4           5.1640    -2.6460    -0.3060 hc         1 5YC       0.068367
     25 H5           4.8300    -2.1580    -1.9650 hc         1 5YC       0.068367
     26 H6           5.8570    -1.1430    -0.9380 hc         1 5YC       0.068367
     27 H7          -1.9790    -1.0080     1.7600 ha         1 5YC       0.129500
     28 H8          -5.1490    -3.2750     0.0200 ha         1 5YC       0.130000
     29 H9          -5.5310    -1.4440    -1.6210 ha         1 5YC       0.124000
     30 H11         -1.6340     0.9090     2.1500 h1         1 5YC       0.066200
     31 H12         -1.4720     2.5250     1.5270 h1         1 5YC       0.066200
     32 H13         -3.3030     2.3740    -1.1970 h1         1 5YC       0.044200
     33 H14         -1.8160     3.0250    -0.5810 h1         1 5YC       0.044200
     34 H15         -1.5840     2.3590    -2.9560 hc         1 5YC       0.041700
     35 H16         -0.4860     1.4130    -1.9520 hc         1 5YC       0.041700
     36 H17         -1.9730     0.6880    -2.5590 hc         1 5YC       0.041700
     37 H2          -4.2140     0.5770    -1.5650 ha         1 5YC       0.129500
@<TRIPOS>BOND
     1     1     3 1   
     2     1    14 2   
     3     1    22 1   
     4     2     8 ar  
     5     2    11 ar  
     6     2    37 1   
     7     3    12 1   
     8     3    16 2   
     9     4    12 1   
    10     4    13 2   
    11     4    17 1   
    12     5     9 ar  
    13     5    10 ar  
    14     5    23 1   
    15     6     7 1   
    16     6    15 2   
    17     6    17 1   
    18     7    24 1   
    19     7    25 1   
    20     7    26 1   
    21     8     9 ar  
    22     8    19 1   
    23     9    27 1   
    24    10    11 ar  
    25    10    28 1   
    26    11    29 1   
    27    12    15 1   
    28    13    14 1   
    29    14    18 1   
    30    18    19 1   
    31    18    30 1   
    32    18    31 1   
    33    19    20 1   
    34    20    21 1   
    35    20    32 1   
    36    20    33 1   
    37    21    34 1   
    38    21    35 1   
    39    21    36 1   
@<TRIPOS>SUBSTRUCTURE
     1 5YC         1 TEMP              0 ****  ****    0 ROOT
