@<TRIPOS>MOLECULE
5YD
   46    48     1     0     0
SMALL
No Charge or Current Charge


@<TRIPOS>ATOM
      1 C4           7.2400    -1.0640     0.2840 ca         1 5YD       0.354900
      2 C14         -0.6830     0.6490    -1.0410 ca         1 5YD      -0.078300
      3 C6           7.7420    -1.2670     2.5380 ca         1 5YD       0.339900
      4 C11          2.1130     1.0570    -1.3610 ca         1 5YD      -0.145600
      5 C7           5.9020     0.8770    -0.6670 c3         1 5YD       0.149300
      6 C9           3.5970     1.2960    -1.5640 c          1 5YD       0.614700
      7 C12          1.6100     0.3050    -0.2700 ca         1 5YD      -0.075000
      8 C13          0.2270     0.1060    -0.1160 ca         1 5YD      -0.100000
      9 C3           6.5420     0.1420     0.4960 ca         1 5YD      -0.165300
     10 C1           7.0670    -0.0730     2.8410 ca         1 5YD      -0.166000
     11 C2           6.4540     0.6500     1.8050 ca         1 5YD      -0.065000
     12 N5           7.8330    -1.7630     1.2820 nb         1 5YD      -0.665000
     13 N8           4.4480     0.7440    -0.6330 ns         1 5YD      -0.506900
     14 O10          4.0310     1.9470    -2.5050 o          1 5YD      -0.592100
     15 C15         -0.1920     1.3960    -2.1270 ca         1 5YD      -0.100000
     16 C16          1.1900     1.5980    -2.2850 ca         1 5YD      -0.075000
     17 N18         -2.5400    -0.9300    -1.2890 n7         1 5YD      -0.856300
     18 S19         -4.1570    -1.3200    -1.3490 sy         1 5YD       1.148600
     19 O20         -4.7160    -0.5440    -2.4570 o          1 5YD      -0.528000
     20 O21         -4.2000    -2.7830    -1.3060 o          1 5YD      -0.528000
     21 C22         -4.7380    -0.6740     0.2250 ca         1 5YD      -0.338500
     22 C23         -4.4500    -1.3760     1.4140 ca         1 5YD       0.013000
     23 C24         -4.8930    -0.8700     2.6480 ca         1 5YD      -0.177500
     24 C25         -5.6170     0.3300     2.6930 ca         1 5YD       0.232000
     25 C26         -5.9040     1.0320     1.5140 ca         1 5YD      -0.177500
     26 C27         -5.4660     0.5340     0.2750 ca         1 5YD       0.013000
     27 F28         -6.0400     0.8140     3.8820 f          1 5YD      -0.163000
     28 H1           7.3280    -1.4870    -0.7160 h4         1 5YD       0.027100
     29 H2           8.2260    -1.8460     3.3240 h4         1 5YD       0.021100
     30 H3           6.1650     1.9420    -0.6190 h1         1 5YD       0.064200
     31 H4           6.2760     0.4780    -1.6200 h1         1 5YD       0.064200
     32 H5           2.2750    -0.1350     0.4690 ha         1 5YD       0.128000
     33 H6          -0.1410    -0.4780     0.7250 ha         1 5YD       0.122500
     34 H7           7.0250     0.2820     3.8670 ha         1 5YD       0.125000
     35 H8           5.9260     1.5790     2.0130 ha         1 5YD       0.118000
     36 H9           4.0310     0.2190     0.1220 hn         1 5YD       0.316500
     37 H10         -0.8810     1.8220    -2.8530 ha         1 5YD       0.122500
     38 H11          1.5420     2.1800    -3.1340 ha         1 5YD       0.128000
     39 H12         -2.4300     0.5900     0.1940 h1         1 5YD       0.057700
     40 H13         -2.7250     1.1830    -1.4470 h1         1 5YD       0.057700
     41 H14         -2.2810    -1.0440    -2.2660 hn         1 5YD       0.483000
     42 H15         -3.8830    -2.3060     1.3850 ha         1 5YD       0.141000
     43 H16         -4.6740    -1.4050     3.5680 ha         1 5YD       0.139500
     44 H17         -6.4650     1.9610     1.5610 ha         1 5YD       0.139500
     45 H18         -5.6930     1.0880    -0.6350 ha         1 5YD       0.141000
     46 C17         -2.1780     0.4290    -0.8630 c3         1 5YD       0.244100
@<TRIPOS>BOND
     1     1     9 ar  
     2     1    12 ar  
     3     1    28 1   
     4     2     8 ar  
     5     2    15 ar  
     6     2    46 1   
     7     3    10 ar  
     8     3    12 ar  
     9     3    29 1   
    10     4     6 1   
    11     4     7 ar  
    12     4    16 ar  
    13     5     9 1   
    14     5    13 1   
    15     5    30 1   
    16     5    31 1   
    17     6    13 1   
    18     6    14 2   
    19     7     8 ar  
    20     7    32 1   
    21     8    33 1   
    22     9    11 ar  
    23    10    11 ar  
    24    10    34 1   
    25    11    35 1   
    26    13    36 1   
    27    15    16 ar  
    28    15    37 1   
    29    16    38 1   
    30    17    18 1   
    31    17    41 1   
    32    17    46 1   
    33    18    19 2   
    34    18    20 2   
    35    18    21 1   
    36    21    22 ar  
    37    21    26 ar  
    38    22    23 ar  
    39    22    42 1   
    40    23    24 ar  
    41    23    43 1   
    42    24    25 ar  
    43    24    27 1   
    44    25    26 ar  
    45    25    44 1   
    46    26    45 1   
    47    39    46 1   
    48    40    46 1   
@<TRIPOS>SUBSTRUCTURE
     1 5YD         1 TEMP              0 ****  ****    0 ROOT
