@<TRIPOS>MOLECULE
5YD
   46    48     1     0     0
SMALL
abcg2


@<TRIPOS>ATOM
      1 C4           6.5510    -0.8720    -0.6260 ca         1 5YD       0.354900
      2 C14         -0.4490     0.5470     0.2370 ca         1 5YD      -0.078300
      3 C6           8.1100    -2.1030     0.4790 ca         1 5YD       0.339900
      4 C11          2.1850     1.2940    -0.3300 ca         1 5YD      -0.145600
      5 C7           5.9450     1.4940    -0.0210 c3         1 5YD       0.149300
      6 C9           3.5770     1.7130    -0.6760 c          1 5YD       0.614700
      7 C12          1.9080     0.0390     0.2110 ca         1 5YD      -0.075000
      8 C13          0.6030    -0.3310     0.4820 ca         1 5YD      -0.100000
      9 C3           6.7460     0.2390     0.1920 ca         1 5YD      -0.165300
     10 C1           8.3850    -1.0630     1.3520 ca         1 5YD      -0.166000
     11 C2           7.6880     0.1270     1.2030 ca         1 5YD      -0.065000
     12 N5           7.2090    -2.0130    -0.4950 nb         1 5YD      -0.665000
     13 N8           4.5340     1.2390     0.1480 ns         1 5YD      -0.506900
     14 O10          3.8080     2.4220    -1.6410 o          1 5YD      -0.592100
     15 C15         -0.1700     1.7940    -0.3080 ca         1 5YD      -0.100000
     16 C16          1.1350     2.1600    -0.6050 ca         1 5YD      -0.075000
     17 N18         -2.2490    -0.8880    -0.4710 n7         1 5YD      -0.856300
     18 S19         -3.5470    -1.8630    -0.1540 sy         1 5YD       1.148600
     19 O20         -3.7330    -2.6540    -1.3590 o          1 5YD      -0.528000
     20 O21         -3.2750    -2.5140     1.1170 o          1 5YD      -0.528000
     21 C22         -4.9420    -0.8050     0.0570 ca         1 5YD      -0.338500
     22 C23         -5.3340    -0.4270     1.3350 ca         1 5YD       0.013000
     23 C24         -6.3950     0.4470     1.4930 ca         1 5YD      -0.177500
     24 C25         -7.0400     0.9240     0.3640 ca         1 5YD       0.232000
     25 C26         -6.6630     0.5480    -0.9140 ca         1 5YD      -0.177500
     26 C27         -5.6030    -0.3260    -1.0690 ca         1 5YD       0.013000
     27 F28         -8.0590     1.7650     0.5100 f          1 5YD      -0.163000
     28 H1           5.8180    -0.8300    -1.4270 h4         1 5YD       0.027100
     29 H2           8.6350    -3.0470     0.5690 h4         1 5YD       0.021100
     30 H3           6.2810     2.2740     0.6680 h1         1 5YD       0.064200
     31 H4           6.1000     1.8780    -1.0280 h1         1 5YD       0.064200
     32 H5           2.7010    -0.6720     0.4010 ha         1 5YD       0.128000
     33 H6           0.4000    -1.3170     0.8800 ha         1 5YD       0.122500
     34 H7           9.1240    -1.1850     2.1310 ha         1 5YD       0.125000
     35 H8           7.8780     0.9560     1.8730 ha         1 5YD       0.118000
     36 H9           4.2500     0.8320     1.0240 hn         1 5YD       0.316500
     37 H10         -0.9760     2.4870    -0.5160 ha         1 5YD       0.122500
     38 H11          1.3340     3.1290    -1.0420 ha         1 5YD       0.128000
     39 H12         -1.9130    -0.3410     1.5040 h1         1 5YD       0.057700
     40 H13         -2.5370     0.9750     0.5140 h1         1 5YD       0.057700
     41 H14         -2.2670    -0.5360    -1.4210 hn         1 5YD       0.483000
     42 H15         -4.8270    -0.8080     2.2110 ha         1 5YD       0.141000
     43 H16         -6.7160     0.7500     2.4790 ha         1 5YD       0.139500
     44 H17         -7.1880     0.9300    -1.7750 ha         1 5YD       0.139500
     45 H18         -5.3140    -0.6130    -2.0690 ha         1 5YD       0.141000
     46 C17         -1.8610     0.1140     0.5140 c3         1 5YD       0.244100
@<TRIPOS>BOND
     1     1     9 ar  
     2     1    12 ar  
     3     1    28 1   
     4     2     8 ar  
     5     2    15 ar  
     6     2    46 1   
     7     3    10 ar  
     8     3    12 ar  
     9     3    29 1   
    10     4     6 1   
    11     4     7 ar  
    12     4    16 ar  
    13     5     9 1   
    14     5    13 1   
    15     5    30 1   
    16     5    31 1   
    17     6    13 1   
    18     6    14 2   
    19     7     8 ar  
    20     7    32 1   
    21     8    33 1   
    22     9    11 ar  
    23    10    11 ar  
    24    10    34 1   
    25    11    35 1   
    26    13    36 1   
    27    15    16 ar  
    28    15    37 1   
    29    16    38 1   
    30    17    18 1   
    31    17    41 1   
    32    17    46 1   
    33    18    19 2   
    34    18    20 2   
    35    18    21 1   
    36    21    22 ar  
    37    21    26 ar  
    38    22    23 ar  
    39    22    42 1   
    40    23    24 ar  
    41    23    43 1   
    42    24    25 ar  
    43    24    27 1   
    44    25    26 ar  
    45    25    44 1   
    46    26    45 1   
    47    39    46 1   
    48    40    46 1   
@<TRIPOS>SUBSTRUCTURE
     1 5YD         1 TEMP              0 ****  ****    0 ROOT
