@<TRIPOS>MOLECULE
5YE
   42    45     1     0     0
SMALL
No Charge or Current Charge


@<TRIPOS>ATOM
      1 C4           0.8630     2.1190     0.3910 cc         1 5YE      -0.386200
      2 C14         -5.6500    -0.6240    -0.5280 ca         1 5YE      -0.111000
      3 C5           2.2800     1.9290     0.0930 c          1 5YE       0.537000
      4 C6           3.9180     0.0240     0.1480 cc         1 5YE      -0.081300
      5 C11          5.0440     0.6710    -0.5830 c5         1 5YE      -0.003100
      6 C7           4.0390    -1.2880     0.4170 cd         1 5YE      -0.263300
      7 C8           1.7850    -0.3500     0.7490 cc         1 5YE      -0.013000
      8 C9           5.3240    -1.7820    -0.1960 c5         1 5YE       0.006900
      9 C10          6.1310    -0.4630    -0.5410 c5         1 5YE      -0.082400
     10 C12         -3.3820     0.1540    -0.0260 ca         1 5YE       0.333000
     11 C13         -4.6770     0.3940    -0.5290 ca         1 5YE      -0.158500
     12 N1           2.6750     0.6080     0.3140 n          1 5YE       0.002200
     13 N2           0.4930    -0.1800     1.0170 nd         1 5YE      -0.334600
     14 C3          -0.0030     1.1230     0.8300 cd         1 5YE       0.185400
     15 C15         -5.3290    -1.8930    -0.0240 ca         1 5YE       0.115000
     16 C16         -4.0450    -2.1500     0.4790 ca         1 5YE      -0.111000
     17 C17         -3.0760    -1.1280     0.4770 ca         1 5YE      -0.158500
     18 N           -2.4100     1.1820    -0.0300 nh         1 5YE      -0.833400
     19 C1          -2.2390     2.0650    -1.2080 c3         1 5YE       0.223800
     20 C           -2.6790     3.5190    -0.9610 c3         1 5YE      -0.122100
     21 C2          -1.4770     1.3700     1.1240 c3         1 5YE       0.278000
     22 O            3.0100     2.8330    -0.2940 o          1 5YE      -0.527000
     23 S            2.4780    -1.9770     0.9040 ss         1 5YE       0.247000
     24 H1           0.5070     3.1310     0.2390 ha         1 5YE       0.214000
     25 H2          -6.6470    -0.4300    -0.9150 ha         1 5YE       0.125500
     26 H3           4.7580     0.9210    -1.6110 hc         1 5YE       0.077700
     27 H4           5.3930     1.5890    -0.0960 hc         1 5YE       0.077700
     28 H5           5.8890    -2.4340     0.4810 hc         1 5YE       0.060200
     29 H6           5.1270    -2.3660    -1.1020 hc         1 5YE       0.060200
     30 H7           6.6890    -0.5460    -1.4810 hc         1 5YE       0.052700
     31 H8           6.8640    -0.2530     0.2470 hc         1 5YE       0.052700
     32 H9          -4.9370     1.3760    -0.9120 ha         1 5YE       0.122000
     33 H11         -3.8000    -3.1360     0.8650 ha         1 5YE       0.125500
     34 H12         -2.0810    -1.3420     0.8540 ha         1 5YE       0.122000
     35 H13         -1.1880     2.0610    -1.5280 h1         1 5YE       0.051700
     36 H14         -2.8140     1.6690    -2.0570 h1         1 5YE       0.051700
     37 H15         -3.7290     3.5590    -0.6490 hc         1 5YE       0.040700
     38 H16         -2.0670     3.9880    -0.1840 hc         1 5YE       0.040700
     39 H17         -2.5720     4.1060    -1.8810 hc         1 5YE       0.040700
     40 H18         -1.7720     0.7170     1.9560 h1         1 5YE       0.063200
     41 H19         -1.5790     2.3920     1.5110 h1         1 5YE       0.063200
     42 F           -6.2600    -2.8720    -0.0230 f          1 5YE      -0.186000
@<TRIPOS>BOND
     1     1     3 1   
     2     1    14 2   
     3     1    24 1   
     4     2    11 ar  
     5     2    15 ar  
     6     2    25 1   
     7     3    12 1   
     8     3    22 2   
     9     4     5 1   
    10     4     6 2   
    11     4    12 1   
    12     5     9 1   
    13     5    26 1   
    14     5    27 1   
    15     6     8 1   
    16     6    23 1   
    17     7    12 1   
    18     7    13 2   
    19     7    23 1   
    20     8     9 1   
    21     8    28 1   
    22     8    29 1   
    23     9    30 1   
    24     9    31 1   
    25    10    11 ar  
    26    10    17 ar  
    27    10    18 1   
    28    11    32 1   
    29    13    14 1   
    30    14    21 1   
    31    15    16 ar  
    32    15    42 1   
    33    16    17 ar  
    34    16    33 1   
    35    17    34 1   
    36    18    19 1   
    37    18    21 1   
    38    19    20 1   
    39    19    35 1   
    40    19    36 1   
    41    20    37 1   
    42    20    38 1   
    43    20    39 1   
    44    21    40 1   
    45    21    41 1   
@<TRIPOS>SUBSTRUCTURE
     1 5YE         1 TEMP              0 ****  ****    0 ROOT
