@<TRIPOS>MOLECULE
5YE
   42    45     1     0     0
SMALL
bcc


@<TRIPOS>ATOM
      1 C4           0.9680     2.2930     0.5740 cc         1 5YE      -0.336200
      2 C14         -5.1150    -0.9340    -0.8340 ca         1 5YE      -0.129000
      3 C5           2.3320     1.9940     0.2700 c          1 5YE       0.612500
      4 C6           3.7950     0.0070    -0.0850 cc         1 5YE      -0.030600
      5 C11          5.1380     0.5380    -0.4580 c5         1 5YE      -0.003100
      6 C7           3.7410    -1.3280    -0.0920 cd         1 5YE      -0.118400
      7 C8           1.5660    -0.3010     0.3900 cc         1 5YE       0.182600
      8 C9           5.0280    -1.9690    -0.4780 c5         1 5YE       0.006900
      9 C10          5.9920    -0.7550    -0.4330 c5         1 5YE      -0.082400
     10 C12         -3.1270     0.2180    -0.0250 ca         1 5YE       0.194600
     11 C13         -4.2430     0.1430    -0.8740 ca         1 5YE      -0.176500
     12 N1           2.5710     0.6050     0.1880 n          1 5YE      -0.099200
     13 N2           0.3360    -0.0110     0.6630 nd         1 5YE      -0.334600
     14 C3           0.0410     1.3060     0.7520 cd         1 5YE       0.185400
     15 C15         -4.8960    -1.9530     0.0690 ca         1 5YE       0.079900
     16 C16         -3.8090    -1.9210     0.9180 ca         1 5YE      -0.129000
     17 C17         -2.9280    -0.8530     0.8640 ca         1 5YE      -0.176500
     18 N           -2.2580     1.2870    -0.0760 nh         1 5YE      -0.695000
     19 C1          -2.3290     2.2740    -1.1350 c3         1 5YE       0.223800
     20 C           -3.2770     3.4330    -0.8480 c3         1 5YE      -0.122100
     21 C2          -1.4010     1.6360     1.0320 c3         1 5YE       0.278000
     22 O            3.2420     2.7810     0.0830 o          1 5YE      -0.602500
     23 S            2.1520    -1.9300     0.2390 ss         1 5YE      -0.042800
     24 H1           0.6900     3.3340     0.6570 ha         1 5YE       0.164000
     25 H2          -5.9680    -0.9630    -1.4990 ha         1 5YE       0.143500
     26 H3           5.1090     0.9960    -1.4500 hc         1 5YE       0.077700
     27 H4           5.5170     1.2890     0.2320 hc         1 5YE       0.077700
     28 H5           5.3350    -2.7650     0.2000 hc         1 5YE       0.060200
     29 H6           4.9560    -2.4050    -1.4780 hc         1 5YE       0.060200
     30 H7           6.7050    -0.7800    -1.2550 hc         1 5YE       0.052700
     31 H8           6.5640    -0.7870     0.4940 hc         1 5YE       0.052700
     32 H9          -4.4590     0.9340    -1.5780 ha         1 5YE       0.140000
     33 H11         -3.6300    -2.7330     1.6120 ha         1 5YE       0.143500
     34 H12         -2.0530    -0.8830     1.4960 ha         1 5YE       0.140000
     35 H13         -1.3200     2.6630    -1.2960 h1         1 5YE       0.051700
     36 H14         -2.6010     1.7820    -2.0700 h1         1 5YE       0.051700
     37 H15         -4.3070     3.0960    -0.7350 hc         1 5YE       0.040700
     38 H16         -2.9950     3.9570     0.0660 hc         1 5YE       0.040700
     39 H17         -3.2460     4.1540    -1.6650 hc         1 5YE       0.040700
     40 H18         -1.7230     1.1270     1.9420 h1         1 5YE       0.063200
     41 H19         -1.4910     2.7060     1.2390 h1         1 5YE       0.063200
     42 F           -5.7500    -2.9970     0.1180 f          1 5YE      -0.150900
@<TRIPOS>BOND
     1     1     3 1   
     2     1    14 2   
     3     1    24 1   
     4     2    11 ar  
     5     2    15 ar  
     6     2    25 1   
     7     3    12 1   
     8     3    22 2   
     9     4     5 1   
    10     4     6 2   
    11     4    12 1   
    12     5     9 1   
    13     5    26 1   
    14     5    27 1   
    15     6     8 1   
    16     6    23 1   
    17     7    12 1   
    18     7    13 2   
    19     7    23 1   
    20     8     9 1   
    21     8    28 1   
    22     8    29 1   
    23     9    30 1   
    24     9    31 1   
    25    10    11 ar  
    26    10    17 ar  
    27    10    18 1   
    28    11    32 1   
    29    13    14 1   
    30    14    21 1   
    31    15    16 ar  
    32    15    42 1   
    33    16    17 ar  
    34    16    33 1   
    35    17    34 1   
    36    18    19 1   
    37    18    21 1   
    38    19    20 1   
    39    19    35 1   
    40    19    36 1   
    41    20    37 1   
    42    20    38 1   
    43    20    39 1   
    44    21    40 1   
    45    21    41 1   
@<TRIPOS>SUBSTRUCTURE
     1 5YE         1 TEMP              0 ****  ****    0 ROOT
