@<TRIPOS>MOLECULE
5YF
   42    45     1     0     0
SMALL
bcc


@<TRIPOS>ATOM
      1 C4          -0.2030     1.2090    -1.2810 cc         1 5YF      -0.332200
      2 C14         -4.4450     0.3010    -0.2870 cx         1 5YF      -0.070400
      3 C5           0.6730     0.2440    -0.8870 cd         1 5YF       0.202400
      4 C6          -0.9950    -1.0790    -0.1880 cc         1 5YF       0.176600
      5 C11          6.8810    -0.1140     0.4190 ca         1 5YF       0.096900
      6 C7           2.1490     0.4090    -1.0890 c3         1 5YF       0.188600
      7 C8           4.1340     0.0500     0.1600 ca         1 5YF       0.128100
      8 C9           4.7060    -0.3670     1.3630 ca         1 5YF      -0.163500
      9 C10          6.0800    -0.4490     1.4970 ca         1 5YF      -0.131500
     10 C12          6.3410     0.3010    -0.7780 ca         1 5YF      -0.131500
     11 C13          4.9580     0.3850    -0.9100 ca         1 5YF      -0.163500
     12 N1           0.2800    -0.9330    -0.3550 nd         1 5YF      -0.323600
     13 C3          -1.6190     1.0270    -1.1710 c          1 5YF       0.615500
     14 O1           2.7850     0.1010     0.1310 os         1 5YF      -0.299900
     15 O           -2.4710     1.7810    -1.5990 o          1 5YF      -0.599500
     16 S           -1.6880    -2.5180     0.4530 ss         1 5YF      -0.068800
     17 C1          -3.2900    -1.8470     0.3210 cc         1 5YF      -0.075400
     18 C           -4.4440    -2.6870     0.7430 c3         1 5YF      -0.018800
     19 N           -1.9660    -0.1710    -0.4950 n          1 5YF      -0.115200
     20 C2          -3.2730    -0.5910    -0.1640 cd         1 5YF       0.020400
     21 C16         -4.5810     1.4880     0.6190 cx         1 5YF      -0.087700
     22 C15         -5.4870     0.3170     0.7980 cx         1 5YF      -0.111400
     23 C17         -5.1090     2.7730     0.0570 c3         1 5YF       0.165400
     24 O2          -5.7710     3.4710     1.0910 oh         1 5YF      -0.599800
     25 H1           0.1440     2.1330    -1.7220 ha         1 5YF       0.166000
     26 H2          -4.8130     0.4400    -1.2980 hc         1 5YF       0.108700
     27 H3           2.4730    -0.2750    -1.8840 h1         1 5YF       0.052200
     28 H4           2.3760     1.4290    -1.4140 h1         1 5YF       0.052200
     29 H5           4.0660    -0.6290     2.1960 ha         1 5YF       0.144500
     30 H6           6.5200    -0.7760     2.4290 ha         1 5YF       0.149500
     31 H7           6.9810     0.5610    -1.6100 ha         1 5YF       0.149500
     32 H8           4.5550     0.7190    -1.8560 ha         1 5YF       0.144500
     33 H10         -4.3180    -3.7130     0.3970 hc         1 5YF       0.054700
     34 H11         -4.5390    -2.7180     1.8290 hc         1 5YF       0.054700
     35 H12         -5.3750    -2.3110     0.3280 hc         1 5YF       0.054700
     36 H13         -3.8050     1.6030     1.3710 hc         1 5YF       0.090700
     37 H14         -6.5200     0.4110     0.4840 hc         1 5YF       0.079200
     38 H15         -5.3470    -0.3020     1.6740 hc         1 5YF       0.079200
     39 H16         -4.2800     3.3580    -0.3550 h1         1 5YF       0.031700
     40 H17         -5.7890     2.5490    -0.7760 h1         1 5YF       0.031700
     41 H18         -6.0160     4.3380     0.7560 ho         1 5YF       0.404000
     42 F            8.2180    -0.1970     0.5470 f          1 5YF      -0.145900
@<TRIPOS>BOND
     1     1     3 2   
     2     1    13 1   
     3     1    25 1   
     4     2    20 1   
     5     2    21 1   
     6     2    22 1   
     7     2    26 1   
     8     3     6 1   
     9     3    12 1   
    10     4    12 2   
    11     4    16 1   
    12     4    19 1   
    13     5     9 ar  
    14     5    10 ar  
    15     5    42 1   
    16     6    14 1   
    17     6    27 1   
    18     6    28 1   
    19     7     8 ar  
    20     7    11 ar  
    21     7    14 1   
    22     8     9 ar  
    23     8    29 1   
    24     9    30 1   
    25    10    11 ar  
    26    10    31 1   
    27    11    32 1   
    28    13    15 2   
    29    13    19 1   
    30    16    17 1   
    31    17    18 1   
    32    17    20 2   
    33    18    33 1   
    34    18    34 1   
    35    18    35 1   
    36    19    20 1   
    37    21    22 1   
    38    21    23 1   
    39    21    36 1   
    40    22    37 1   
    41    22    38 1   
    42    23    24 1   
    43    23    39 1   
    44    23    40 1   
    45    24    41 1   
@<TRIPOS>SUBSTRUCTURE
     1 5YF         1 TEMP              0 ****  ****    0 ROOT
