@<TRIPOS>MOLECULE
5YF
   42    45     1     0     0
SMALL
No Charge or Current Charge


@<TRIPOS>ATOM
      1 C4          -0.0060     0.7350    -0.9520 cc         1 5YF      -0.382200
      2 C14         -4.4650     0.4390    -0.2520 cx         1 5YF      -0.070400
      3 C5           0.7030    -0.4560    -0.9010 cd         1 5YF       0.202400
      4 C6          -1.3180    -1.5320    -0.5740 cc         1 5YF      -0.019000
      5 C11          6.9920     0.6310     0.4120 ca         1 5YF       0.132000
      6 C7           2.2070    -0.5370    -1.0610 c3         1 5YF       0.211800
      7 C8           4.2100     0.3290     0.0980 ca         1 5YF       0.128100
      8 C9           4.7250     1.0880     1.1630 ca         1 5YF      -0.145500
      9 C10          6.1150     1.2410     1.3230 ca         1 5YF      -0.113500
     10 C12          6.4890    -0.1290    -0.6560 ca         1 5YF      -0.113500
     11 C13          5.0980    -0.2830    -0.8170 ca         1 5YF      -0.145500
     12 N1          -0.0010    -1.6540    -0.7180 nd         1 5YF      -0.323600
     13 C3          -1.4540     0.8550    -0.8020 c          1 5YF       0.540000
     14 O1           2.8400     0.2160    -0.0070 os         1 5YF      -0.323100
     15 O           -2.0280     1.9310    -0.8890 o          1 5YF      -0.524000
     16 S           -2.2690    -2.9840    -0.3860 ss         1 5YF       0.221000
     17 C1          -3.7340    -1.9830    -0.2970 cc         1 5YF      -0.220300
     18 C           -5.0820    -2.6500    -0.1710 c3         1 5YF      -0.018800
     19 N           -2.0670    -0.3870    -0.5700 n          1 5YF      -0.013800
     20 C2          -3.4230    -0.6300    -0.3700 cd         1 5YF      -0.030300
     21 C16         -4.4530     1.4070     0.9180 cx         1 5YF      -0.087700
     22 C15         -5.5490     0.3790     0.8090 cx         1 5YF      -0.111400
     23 C17         -4.7540     2.8880     0.7260 c3         1 5YF       0.188600
     24 O2          -5.3110     3.4450     1.9230 oh         1 5YF      -0.662000
     25 H1           0.5080     1.6740    -1.1120 ha         1 5YF       0.216000
     26 H2          -4.7480     0.8510    -1.2180 hc         1 5YF       0.108700
     27 H3           2.5220    -1.5880    -1.0270 h1         1 5YF       0.052200
     28 H4           2.4770    -0.1290    -2.0430 h1         1 5YF       0.052200
     29 H5           4.0430     1.5600     1.8670 ha         1 5YF       0.126500
     30 H6           6.5120     1.8280     2.1470 ha         1 5YF       0.131500
     31 H7           7.1760    -0.5980    -1.3570 ha         1 5YF       0.131500
     32 H8           4.7330    -0.8760    -1.6510 ha         1 5YF       0.126500
     33 H10         -5.0640    -3.6570    -0.6030 hc         1 5YF       0.054700
     34 H11         -5.3770    -2.7460     0.8810 hc         1 5YF       0.054700
     35 H12         -5.8600    -2.0830    -0.6960 hc         1 5YF       0.054700
     36 H13         -3.7000     1.2360     1.6840 hc         1 5YF       0.090700
     37 H14         -6.5440     0.7190     0.5320 hc         1 5YF       0.079200
     38 H15         -5.5330    -0.4260     1.5380 hc         1 5YF       0.079200
     39 H16         -3.8260     3.4120     0.4620 h1         1 5YF       0.031700
     40 H17         -5.4540     3.0130    -0.1110 h1         1 5YF       0.031700
     41 H18         -5.4820     4.3950     1.7410 ho         1 5YF       0.443000
     42 F            8.3260     0.7760     0.5630 f          1 5YF      -0.181000
@<TRIPOS>BOND
     1     1     3 2   
     2     1    13 1   
     3     1    25 1   
     4     2    20 1   
     5     2    21 1   
     6     2    22 1   
     7     2    26 1   
     8     3     6 1   
     9     3    12 1   
    10     4    12 2   
    11     4    16 1   
    12     4    19 1   
    13     5     9 ar  
    14     5    10 ar  
    15     5    42 1   
    16     6    14 1   
    17     6    27 1   
    18     6    28 1   
    19     7     8 ar  
    20     7    11 ar  
    21     7    14 1   
    22     8     9 ar  
    23     8    29 1   
    24     9    30 1   
    25    10    11 ar  
    26    10    31 1   
    27    11    32 1   
    28    13    15 2   
    29    13    19 1   
    30    16    17 1   
    31    17    18 1   
    32    17    20 2   
    33    18    33 1   
    34    18    34 1   
    35    18    35 1   
    36    19    20 1   
    37    21    22 1   
    38    21    23 1   
    39    21    36 1   
    40    22    37 1   
    41    22    38 1   
    42    23    24 1   
    43    23    39 1   
    44    23    40 1   
    45    24    41 1   
@<TRIPOS>SUBSTRUCTURE
     1 5YF         1 TEMP              0 ****  ****    0 ROOT
