@<TRIPOS>MOLECULE
5YG
   43    45     1     0     0
SMALL
No Charge or Current Charge


@<TRIPOS>ATOM
      1 C01        -24.9050    -2.2630    -9.0620 c3         1 5YG       0.147900
      2 C04        -25.3020     0.4060   -11.6360 ca         1 5YG      -0.176000
      3 C05        -24.7370     1.6240   -12.0510 ca         1 5YG      -0.055500
      4 C06        -23.6330     2.1630   -11.3630 ca         1 5YG      -0.151300
      5 C07        -23.0220     3.4820   -11.8080 c3         1 5YG       0.262100
      6 C09        -21.1650     4.1580   -13.4470 ca         1 5YG       0.312000
      7 C11        -20.4690     6.4560   -13.8790 ca         1 5YG      -0.061000
      8 C14        -19.2760     7.4600   -16.8430 ca         1 5YG      -0.035300
      9 C15        -19.0730     6.7660   -18.0480 ca         1 5YG      -0.163500
     10 C16        -19.6970     7.2240   -19.2210 ca         1 5YG       0.332900
     11 C18        -20.6950     8.9820   -18.0920 ca         1 5YG       0.332900
     12 C19        -20.1090     8.5920   -16.8750 ca         1 5YG      -0.163500
     13 C21        -20.2130     3.7060   -14.3730 ca         1 5YG      -0.184000
     14 C22        -23.1000     1.4700   -10.2580 ca         1 5YG      -0.055500
     15 C03        -24.7730    -0.2860   -10.5350 ca         1 5YG       0.149100
     16 C10        -21.2910     5.5380   -13.2020 ca         1 5YG      -0.184000
     17 C12        -19.5120     6.0020   -14.8070 ca         1 5YG      -0.136300
     18 C20        -19.3890     4.6210   -15.0520 ca         1 5YG      -0.061000
     19 C23        -23.6660     0.2510    -9.8430 ca         1 5YG      -0.176000
     20 N08        -21.9660     3.2240   -12.7920 nu         1 5YG      -0.945200
     21 N17        -20.4970     8.3150   -19.2530 nb         1 5YG      -0.668000
     22 O02        -25.3700    -1.4770   -10.1740 os         1 5YG      -0.340100
     23 H1         -25.5180    -3.1660    -8.9520 h1         1 5YG       0.041700
     24 H2         -23.8640    -2.5750    -9.2130 h1         1 5YG       0.041700
     25 H3         -24.9700    -1.6920    -8.1270 h1         1 5YG       0.041700
     26 H4         -26.1540    -0.0050   -12.1710 ha         1 5YG       0.124000
     27 H5         -25.1560     2.1490   -12.9070 ha         1 5YG       0.117000
     28 H6         -22.6080     4.0090   -10.9360 h1         1 5YG       0.042700
     29 H7         -23.8020     4.1200   -12.2470 h1         1 5YG       0.042700
     30 H8         -20.5780     7.5210   -13.6830 ha         1 5YG       0.109500
     31 H9         -17.6490     6.5450   -15.7590 hc         1 5YG       0.056700
     32 H10        -18.4130     7.8600   -14.9050 hc         1 5YG       0.056700
     33 H11        -18.4430     5.8820   -18.0840 ha         1 5YG       0.124000
     34 H12        -19.5530     6.7010   -20.1660 h4         1 5YG       0.016100
     35 H13        -21.3440     9.8560   -18.1390 h4         1 5YG       0.016100
     36 H14        -20.3070     9.1660   -15.9740 ha         1 5YG       0.124000
     37 H15        -20.1090     2.6430   -14.5710 ha         1 5YG       0.112500
     38 H16        -22.2450     1.8770    -9.7220 ha         1 5YG       0.117000
     39 H17        -22.0220     5.9080   -12.4910 ha         1 5YG       0.112500
     40 H18        -18.6580     4.2560   -15.7700 ha         1 5YG       0.109500
     41 H19        -23.2320    -0.2590    -8.9880 ha         1 5YG       0.124000
     42 H20        -21.8040     2.2460   -13.0330 hn         1 5YG       0.469000
     43 C13        -18.6270     6.9960   -15.5460 c3         1 5YG       0.019200
@<TRIPOS>BOND
     1     1    22 1   
     2     1    23 1   
     3     1    24 1   
     4     1    25 1   
     5     2     3 ar  
     6     2    15 ar  
     7     2    26 1   
     8     3     4 ar  
     9     3    27 1   
    10     4     5 1   
    11     4    14 ar  
    12     5    20 1   
    13     5    28 1   
    14     5    29 1   
    15     6    13 ar  
    16     6    16 ar  
    17     6    20 1   
    18     7    16 ar  
    19     7    17 ar  
    20     7    30 1   
    21     8     9 ar  
    22     8    12 ar  
    23     8    43 1   
    24     9    10 ar  
    25     9    33 1   
    26    10    21 ar  
    27    10    34 1   
    28    11    12 ar  
    29    11    21 ar  
    30    11    35 1   
    31    12    36 1   
    32    13    18 ar  
    33    13    37 1   
    34    14    19 ar  
    35    14    38 1   
    36    15    19 ar  
    37    15    22 1   
    38    16    39 1   
    39    17    18 ar  
    40    17    43 1   
    41    18    40 1   
    42    19    41 1   
    43    20    42 1   
    44    31    43 1   
    45    32    43 1   
@<TRIPOS>SUBSTRUCTURE
     1 5YG         1 TEMP              0 ****  ****    0 ROOT
