@<TRIPOS>MOLECULE
5YG
   43    45     1     0     0
SMALL
abcg2


@<TRIPOS>ATOM
      1 C01        -24.9630    -2.0570    -9.0440 c3         1 5YG       0.147900
      2 C04        -25.5690     0.7940   -11.2100 ca         1 5YG      -0.176000
      3 C05        -24.9350     1.9270   -11.6870 ca         1 5YG      -0.055500
      4 C06        -23.6270     2.2330   -11.3210 ca         1 5YG      -0.151300
      5 C07        -22.9320     3.4510   -11.8620 c3         1 5YG       0.262100
      6 C09        -21.1580     4.0090   -13.4720 ca         1 5YG       0.312000
      7 C11        -20.2860     6.2510   -13.7340 ca         1 5YG      -0.061000
      8 C14        -19.2570     7.3510   -16.8730 ca         1 5YG      -0.035300
      9 C15        -18.4330     7.7800   -17.9090 ca         1 5YG      -0.163500
     10 C16        -19.0000     8.2500   -19.0820 ca         1 5YG       0.332900
     11 C18        -21.0980     7.9100   -18.3020 ca         1 5YG       0.332900
     12 C19        -20.6290     7.4210   -17.0920 ca         1 5YG      -0.163500
     13 C21        -20.3830     3.6300   -14.5810 ca         1 5YG      -0.184000
     14 C22        -22.9700     1.3590   -10.4630 ca         1 5YG      -0.055500
     15 C03        -24.8980    -0.0750   -10.3480 ca         1 5YG       0.149100
     16 C10        -21.0990     5.3450   -13.0640 ca         1 5YG      -0.184000
     17 C12        -19.5170     5.8790   -14.8280 ca         1 5YG      -0.136300
     18 C20        -19.5880     4.5470   -15.2390 ca         1 5YG      -0.061000
     19 C23        -23.5880     0.2170    -9.9720 ca         1 5YG      -0.176000
     20 N08        -21.9100     3.0640   -12.8110 nu         1 5YG      -0.945200
     21 N17        -20.3110     8.3200   -19.2890 nb         1 5YG      -0.668000
     22 O02        -25.5870    -1.1550    -9.9350 os         1 5YG      -0.340100
     23 H1         -25.6890    -2.8400    -8.8380 h1         1 5YG       0.041700
     24 H2         -24.0700    -2.5140    -9.4790 h1         1 5YG       0.041700
     25 H3         -24.6890    -1.5760    -8.1010 h1         1 5YG       0.041700
     26 H4         -26.5880     0.5730   -11.5020 ha         1 5YG       0.124000
     27 H5         -25.4720     2.5890   -12.3570 ha         1 5YG       0.117000
     28 H6         -22.4630     3.9980   -11.0400 h1         1 5YG       0.042700
     29 H7         -23.6710     4.1310   -12.3070 h1         1 5YG       0.042700
     30 H8         -20.2610     7.2790   -13.3890 ha         1 5YG       0.109500
     31 H9         -17.6800     6.4450   -15.7750 hc         1 5YG       0.056700
     32 H10        -18.4850     7.7450   -14.9390 hc         1 5YG       0.056700
     33 H11        -17.3550     7.7450   -17.8090 ha         1 5YG       0.124000
     34 H12        -18.3630     8.5820   -19.8950 h4         1 5YG       0.016100
     35 H13        -22.1670     7.9690   -18.4800 h4         1 5YG       0.016100
     36 H14        -21.3340     7.0980   -16.3370 ha         1 5YG       0.124000
     37 H15        -20.4090     2.6000   -14.9210 ha         1 5YG       0.112500
     38 H16        -21.9510     1.5700   -10.1590 ha         1 5YG       0.117000
     39 H17        -21.6810     5.6940   -12.2220 ha         1 5YG       0.112500
     40 H18        -19.0060     4.2180   -16.0930 ha         1 5YG       0.109500
     41 H19        -23.0360    -0.4290    -9.3020 ha         1 5YG       0.124000
     42 H20        -22.1450     2.2540   -13.3630 hn         1 5YG       0.469000
     43 C13        -18.6660     6.8700   -15.5710 c3         1 5YG       0.019200
@<TRIPOS>BOND
     1     1    22 1   
     2     1    23 1   
     3     1    24 1   
     4     1    25 1   
     5     2     3 ar  
     6     2    15 ar  
     7     2    26 1   
     8     3     4 ar  
     9     3    27 1   
    10     4     5 1   
    11     4    14 ar  
    12     5    20 1   
    13     5    28 1   
    14     5    29 1   
    15     6    13 ar  
    16     6    16 ar  
    17     6    20 1   
    18     7    16 ar  
    19     7    17 ar  
    20     7    30 1   
    21     8     9 ar  
    22     8    12 ar  
    23     8    43 1   
    24     9    10 ar  
    25     9    33 1   
    26    10    21 ar  
    27    10    34 1   
    28    11    12 ar  
    29    11    21 ar  
    30    11    35 1   
    31    12    36 1   
    32    13    18 ar  
    33    13    37 1   
    34    14    19 ar  
    35    14    38 1   
    36    15    19 ar  
    37    15    22 1   
    38    16    39 1   
    39    17    18 ar  
    40    17    43 1   
    41    18    40 1   
    42    19    41 1   
    43    20    42 1   
    44    31    43 1   
    45    32    43 1   
@<TRIPOS>SUBSTRUCTURE
     1 5YG         1 TEMP              0 ****  ****    0 ROOT
