@<TRIPOS>MOLECULE
5YH
   42    45     1     0     0
SMALL
No Charge or Current Charge


@<TRIPOS>ATOM
      1 C10         -7.3040    28.8170   -13.0920 c3         1 5YH       0.047600
      2 C13         -9.1140    27.0660   -11.1960 ca         1 5YH      -0.111000
      3 C15         -9.5480    26.7760    -8.7960 ca         1 5YH       0.135000
      4 C17         -8.5680    27.7370    -8.4670 ca         1 5YH      -0.092000
      5 C20         -6.4630    29.6430   -10.8400 ca         1 5YH      -0.017200
      6 C21         -5.4850    30.5830   -11.1910 ca         1 5YH      -0.111000
      7 C22         -4.8410    31.2680   -10.1360 ca         1 5YH      -0.117500
      8 C24         -6.1770    30.0520    -8.4640 ca         1 5YH      -0.092000
      9 C02         -8.4460    29.6780   -13.6850 c3         1 5YH       0.134300
     10 C03         -8.5090    29.5600   -15.2310 c3         1 5YH       0.123000
     11 C05         -9.8130    31.6050   -16.2240 c5         1 5YH       0.090000
     12 C06        -11.2600    31.6760   -16.8330 c5         1 5YH       0.066000
     13 C08        -10.8380    29.4660   -16.1300 c          1 5YH       0.584000
     14 C12         -8.1460    28.0140   -10.8410 ca         1 5YH      -0.017200
     15 C14         -9.8220    26.4420   -10.1450 ca         1 5YH      -0.117500
     16 C18         -7.8650    28.3550    -9.5190 cp         1 5YH      -0.069000
     17 C19         -6.8160    29.3710    -9.5180 cp         1 5YH      -0.069000
     18 C23         -5.1850    31.0020    -8.7890 ca         1 5YH       0.135000
     19 F16        -10.2380    26.1660    -7.8070 f          1 5YH      -0.181000
     20 F25         -4.5560    31.6700    -7.7980 f          1 5YH      -0.181000
     21 N04         -9.7040    30.1910   -15.8340 n          1 5YH      -0.418800
     22 N07        -11.7440    30.2950   -16.7020 ns         1 5YH      -0.485900
     23 N11         -7.2830    28.8060   -11.6160 na         1 5YH      -0.095600
     24 O01         -8.2740    31.0530   -13.2930 oh         1 5YH      -0.659000
     25 H1          -7.4180    27.7820   -13.4390 h1         1 5YH       0.068200
     26 H2          -6.3390    29.1770   -13.4680 h1         1 5YH       0.068200
     27 H3          -9.3170    26.8170   -12.2360 ha         1 5YH       0.127000
     28 H4          -8.3630    27.9900    -7.4310 ha         1 5YH       0.137000
     29 H5          -5.2280    30.7830   -12.2280 ha         1 5YH       0.127000
     30 H6          -4.0740    32.0060   -10.3590 ha         1 5YH       0.132500
     31 H7          -6.4390    29.8540    -7.4290 ha         1 5YH       0.137000
     32 H8          -9.3950    29.2930   -13.2870 h1         1 5YH       0.054700
     33 H9          -8.4870    28.4990   -15.5100 h1         1 5YH       0.060700
     34 H10         -7.6110    30.0230   -15.6620 h1         1 5YH       0.060700
     35 H11         -9.0490    31.8750   -16.9650 h1         1 5YH       0.057200
     36 H12         -9.7080    32.2700   -15.3570 h1         1 5YH       0.057200
     37 H13        -11.2340    32.0000   -17.8820 h1         1 5YH       0.051700
     38 H14        -10.5830    25.6990   -10.3700 ha         1 5YH       0.132500
     39 H15         -8.2030    31.0630   -12.3130 ho         1 5YH       0.456000
     40 H16        -11.8900    32.3820   -16.2750 h1         1 5YH       0.051700
     41 H17        -12.6460    29.9340   -16.9880 hn         1 5YH       0.322500
     42 O09        -11.0150    28.2790   -15.9180 o          1 5YH      -0.580000
@<TRIPOS>BOND
     1     1     9 1   
     2     1    23 1   
     3     1    25 1   
     4     1    26 1   
     5     2    14 ar  
     6     2    15 ar  
     7     2    27 1   
     8     3     4 ar  
     9     3    15 ar  
    10     3    19 1   
    11     4    16 ar  
    12     4    28 1   
    13     5     6 ar  
    14     5    17 ar  
    15     5    23 1   
    16     6     7 ar  
    17     6    29 1   
    18     7    18 ar  
    19     7    30 1   
    20     8    17 ar  
    21     8    18 ar  
    22     8    31 1   
    23     9    10 1   
    24     9    24 1   
    25     9    32 1   
    26    10    21 1   
    27    10    33 1   
    28    10    34 1   
    29    11    12 1   
    30    11    21 1   
    31    11    35 1   
    32    11    36 1   
    33    12    22 1   
    34    12    37 1   
    35    12    40 1   
    36    13    21 1   
    37    13    22 1   
    38    13    42 2   
    39    14    16 ar  
    40    14    23 1   
    41    15    38 1   
    42    16    17 1   
    43    18    20 1   
    44    22    41 1   
    45    24    39 1   
@<TRIPOS>SUBSTRUCTURE
     1 5YH         1 TEMP              0 ****  ****    0 ROOT
