@<TRIPOS>MOLECULE
5YH
   42    45     1     0     0
SMALL
abcg2


@<TRIPOS>ATOM
      1 C10         -7.4740    28.6760   -13.0730 c3         1 5YH       0.047600
      2 C13         -9.0540    26.9620   -11.0330 ca         1 5YH      -0.111000
      3 C15         -9.3540    26.7170    -8.6590 ca         1 5YH       0.135000
      4 C17         -8.4460    27.7070    -8.3660 ca         1 5YH      -0.092000
      5 C20         -6.6180    29.6050   -10.9050 ca         1 5YH      -0.017200
      6 C21         -5.7190    30.5750   -11.3440 ca         1 5YH      -0.111000
      7 C22         -5.0550    31.3250   -10.3910 ca         1 5YH      -0.117500
      8 C24         -6.1810    30.1600    -8.5770 ca         1 5YH      -0.092000
      9 C02         -8.6160    29.5370   -13.6170 c3         1 5YH       0.134300
     10 C03         -8.5780    29.5360   -15.1370 c3         1 5YH       0.123000
     11 C05         -9.6140    31.6140   -16.1480 c5         1 5YH       0.090000
     12 C06        -11.0230    31.8520   -16.6920 c5         1 5YH       0.066000
     13 C08        -10.7130    29.5820   -16.3550 c          1 5YH       0.584000
     14 C12         -8.1290    27.9670   -10.7630 ca         1 5YH      -0.017200
     15 C14         -9.6660    26.3360    -9.9620 ca         1 5YH      -0.117500
     16 C18         -7.8250    28.3430    -9.4400 cp         1 5YH      -0.069000
     17 C19         -6.8520    29.3960    -9.5320 cp         1 5YH      -0.069000
     18 C23         -5.2980    31.1080    -9.0360 ca         1 5YH       0.135000
     19 F16         -9.9770    26.0830    -7.6460 f          1 5YH      -0.181000
     20 F25         -4.6330    31.8710    -8.1480 f          1 5YH      -0.181000
     21 N04         -9.6890    30.2300   -15.7280 n          1 5YH      -0.418800
     22 N07        -11.4110    30.5110   -17.0800 ns         1 5YH      -0.485900
     23 N11         -7.3850    28.7270   -11.6350 na         1 5YH      -0.095600
     24 O01         -8.5140    30.8680   -13.1700 oh         1 5YH      -0.659000
     25 H1          -7.6070    27.6380   -13.3840 h1         1 5YH       0.068200
     26 H2          -6.5200    29.0020   -13.4920 h1         1 5YH       0.068200
     27 H3          -9.3010    26.6690   -12.0450 ha         1 5YH       0.127000
     28 H4          -8.2280    27.9780    -7.3400 ha         1 5YH       0.137000
     29 H5          -5.5370    30.7550   -12.3940 ha         1 5YH       0.127000
     30 H6          -4.3500    32.0880   -10.6930 ha         1 5YH       0.132500
     31 H7          -6.3480    30.0180    -7.5160 ha         1 5YH       0.137000
     32 H8          -9.5700    29.0930   -13.3000 h1         1 5YH       0.054700
     33 H9          -8.5720    28.5020   -15.4880 h1         1 5YH       0.060700
     34 H10         -7.6450    29.9940   -15.4800 h1         1 5YH       0.060700
     35 H11         -8.8540    31.7460   -16.9270 h1         1 5YH       0.057200
     36 H12         -9.3730    32.2810   -15.3230 h1         1 5YH       0.057200
     37 H13        -11.0290    32.5400   -17.5360 h1         1 5YH       0.051700
     38 H14        -10.3910    25.5510   -10.1320 ha         1 5YH       0.132500
     39 H15         -8.8460    30.9230   -12.2690 ho         1 5YH       0.456000
     40 H16        -11.6800    32.2550   -15.9160 h1         1 5YH       0.051700
     41 H17        -12.3740    30.3110   -17.3000 hn         1 5YH       0.322500
     42 O09        -10.9490    28.3860   -16.2940 o          1 5YH      -0.580000
@<TRIPOS>BOND
     1     1     9 1   
     2     1    23 1   
     3     1    25 1   
     4     1    26 1   
     5     2    14 ar  
     6     2    15 ar  
     7     2    27 1   
     8     3     4 ar  
     9     3    15 ar  
    10     3    19 1   
    11     4    16 ar  
    12     4    28 1   
    13     5     6 ar  
    14     5    17 ar  
    15     5    23 1   
    16     6     7 ar  
    17     6    29 1   
    18     7    18 ar  
    19     7    30 1   
    20     8    17 ar  
    21     8    18 ar  
    22     8    31 1   
    23     9    10 1   
    24     9    24 1   
    25     9    32 1   
    26    10    21 1   
    27    10    33 1   
    28    10    34 1   
    29    11    12 1   
    30    11    21 1   
    31    11    35 1   
    32    11    36 1   
    33    12    22 1   
    34    12    37 1   
    35    12    40 1   
    36    13    21 1   
    37    13    22 1   
    38    13    42 2   
    39    14    16 ar  
    40    14    23 1   
    41    15    38 1   
    42    16    17 1   
    43    18    20 1   
    44    22    41 1   
    45    24    39 1   
@<TRIPOS>SUBSTRUCTURE
     1 5YH         1 TEMP              0 ****  ****    0 ROOT
