@<TRIPOS>MOLECULE
5YI
   77    79     1     0     0
SMALL
No Charge or Current Charge


@<TRIPOS>ATOM
      1 C12         -1.4800     2.9290    -0.3460 c6         1 5YI      -0.059400
      2 C13         -1.2820     1.4180    -0.0300 c5         1 5YI      -0.007800
      3 C14         -0.0650     1.2920     0.9420 c5         1 5YI      -0.038500
      4 C15         -0.2380    -0.1660     1.4690 c5         1 5YI      -0.040200
      5 C16         -1.7520    -0.1690     1.6290 c2         1 5YI      -0.201200
      6 C21         -4.3350     1.7780     2.0030 c3         1 5YI      -0.084100
      7 C24         -7.3550    -1.0370    -0.5050 c3         1 5YI       0.202000
      8 C29         -8.6790    -0.8870     1.7730 c3         1 5YI      -0.085600
      9 C27         -7.8510    -1.7530     0.7930 c3         1 5YI      -0.086400
     10 C26         -8.5200    -0.4860    -1.3860 c3         1 5YI      -0.086400
     11 C28         -9.5980    -1.5120    -1.8120 c3         1 5YI      -0.085600
     12 O03         -6.6370    -2.0060    -1.2720 oh         1 5YI      -0.650000
     13 S22         -4.7410    -0.5350     0.4920 ss         1 5YI      -0.414000
     14 C20         -3.8230     1.0530     0.7450 c3         1 5YI       0.136500
     15 C17         -2.3380     0.7440     0.8360 c2         1 5YI      -0.119400
     16 C18         -1.1750     0.6150    -1.3690 c3         1 5YI      -0.078100
     17 C11         -0.2140     3.5230    -1.0420 c6         1 5YI      -0.071400
     18 C09          1.1330     3.1900    -0.3200 c6         1 5YI      -0.041200
     19 C08          1.2040     1.7490     0.2110 c2         1 5YI      -0.077400
     20 C07          2.2660     0.9000     0.1550 ce         1 5YI      -0.184000
     21 C06          3.5790     1.2080    -0.4500 ce         1 5YI      -0.172000
     22 C05          4.6150     0.3500    -0.6320 c2         1 5YI      -0.097400
     23 C10          5.9250     0.8130    -1.2640 c6         1 5YI      -0.078700
     24 C01          7.1580     0.4710    -0.3890 c6         1 5YI       0.213500
     25 O01          7.1800     1.2890     0.7860 oh         1 5YI      -0.654000
     26 C04          4.6360    -1.1370    -0.2710 c6         1 5YI      -0.078700
     27 C03          5.8390    -1.4760     0.6450 c6         1 5YI       0.213500
     28 O02          5.8430    -2.8850     0.9170 oh         1 5YI      -0.654000
     29 C02          7.1650    -1.0070     0.0170 c2         1 5YI      -0.109400
     30 C30          8.2450    -1.8060    -0.1450 c2         1 5YI      -0.181200
     31 C31          9.5810    -1.4050    -0.7300 c3         1 5YI       0.194800
     32 O04         10.4890    -2.5070    -0.6700 oh         1 5YI      -0.652000
     33 H1          -2.3570     3.0740    -0.9910 hc         1 5YI       0.041200
     34 H2          -1.6820     3.4810     0.5830 hc         1 5YI       0.041200
     35 H3          -0.2080     1.9670     1.7960 hc         1 5YI       0.055700
     36 H4           0.0850    -0.9410     0.7650 hc         1 5YI       0.054700
     37 H5           0.2820    -0.3240     2.4210 hc         1 5YI       0.054700
     38 H6          -2.2990    -0.8020     2.3290 ha         1 5YI       0.197000
     39 H8          -4.2140     1.1480     2.8910 hc         1 5YI       0.041367
     40 H9          -3.7730     2.7060     2.1610 hc         1 5YI       0.041367
     41 H10         -5.3950     2.0370     1.9040 hc         1 5YI       0.041367
     42 H11         -6.1280     0.6630    -1.1090 h1         1 5YI       0.058700
     43 H12         -6.7950     0.8140     0.5210 h1         1 5YI       0.058700
     44 H13         -8.9830    -1.4880     2.6380 hc         1 5YI       0.034033
     45 H14         -8.0960    -0.0370     2.1460 hc         1 5YI       0.034033
     46 H15         -9.5890    -0.5050     1.2960 hc         1 5YI       0.034033
     47 H16         -8.4490    -2.6300     0.5180 hc         1 5YI       0.050700
     48 H17         -6.9880    -2.1500     1.3400 hc         1 5YI       0.050700
     49 H18         -9.0120     0.3410    -0.8610 hc         1 5YI       0.050700
     50 H19         -8.0930    -0.0480    -2.2970 hc         1 5YI       0.050700
     51 H20         -9.1490    -2.3620    -2.3390 hc         1 5YI       0.034033
     52 H21        -10.1510    -1.8900    -0.9450 hc         1 5YI       0.034033
     53 H22        -10.3210    -1.0390    -2.4880 hc         1 5YI       0.034033
     54 H23         -5.7210    -1.9700    -0.9170 ho         1 5YI       0.442000
     55 H24         -4.0070     1.6890    -0.1300 h1         1 5YI       0.065700
     56 H26         -2.0440     0.8050    -2.0100 hc         1 5YI       0.038700
     57 H27         -0.2770     0.8700    -1.9430 hc         1 5YI       0.038700
     58 H28         -1.1410    -0.4670    -1.1960 hc         1 5YI       0.038700
     59 H29         -0.1630     3.1580    -2.0760 hc         1 5YI       0.040200
     60 H30         -0.3210     4.6130    -1.1270 hc         1 5YI       0.040200
     61 H31          1.9560     3.4150    -1.0070 hc         1 5YI       0.045700
     62 H32          1.2540     3.8740     0.5310 hc         1 5YI       0.045700
     63 H33          2.1800    -0.0830     0.6060 ha         1 5YI       0.172000
     64 H34          3.7230     2.2390    -0.7690 ha         1 5YI       0.165000
     65 H35          6.0370     0.3200    -2.2400 hc         1 5YI       0.052700
     66 H36          5.9030     1.8900    -1.4760 hc         1 5YI       0.052700
     67 H37          8.0490     0.6920    -0.9940 h1         1 5YI       0.048200
     68 H38          7.1210     2.2190     0.4790 ho         1 5YI       0.443500
     69 H39          3.7100    -1.4640     0.2120 hc         1 5YI       0.052700
     70 H40          4.7100    -1.7230    -1.1970 hc         1 5YI       0.052700
     71 H41          5.7040    -0.9270     1.5890 h1         1 5YI       0.048200
     72 H42          4.9970    -3.0820     1.3750 ho         1 5YI       0.443500
     73 H43          8.2100    -2.8490     0.1660 ha         1 5YI       0.205000
     74 H44          9.4420    -1.0870    -1.7720 h1         1 5YI       0.021200
     75 H45          9.9850    -0.5520    -0.1690 h1         1 5YI       0.021200
     76 H46         11.3370    -2.1960    -1.0580 ho         1 5YI       0.439000
     77 C23         -6.3480     0.1070    -0.1880 c3         1 5YI       0.021600
@<TRIPOS>BOND
     1     1     2 1   
     2     1    17 1   
     3     1    33 1   
     4     1    34 1   
     5     2     3 1   
     6     2    15 1   
     7     2    16 1   
     8     3     4 1   
     9     3    19 1   
    10     3    35 1   
    11     4     5 1   
    12     4    36 1   
    13     4    37 1   
    14     5    15 2   
    15     5    38 1   
    16     6    14 1   
    17     6    39 1   
    18     6    40 1   
    19     6    41 1   
    20     7     9 1   
    21     7    10 1   
    22     7    12 1   
    23     7    77 1   
    24     8     9 1   
    25     8    44 1   
    26     8    45 1   
    27     8    46 1   
    28     9    47 1   
    29     9    48 1   
    30    10    11 1   
    31    10    49 1   
    32    10    50 1   
    33    11    51 1   
    34    11    52 1   
    35    11    53 1   
    36    12    54 1   
    37    13    14 1   
    38    13    77 1   
    39    14    15 1   
    40    14    55 1   
    41    16    56 1   
    42    16    57 1   
    43    16    58 1   
    44    17    18 1   
    45    17    59 1   
    46    17    60 1   
    47    18    19 1   
    48    18    61 1   
    49    18    62 1   
    50    19    20 2   
    51    20    21 1   
    52    20    63 1   
    53    21    22 2   
    54    21    64 1   
    55    22    23 1   
    56    22    26 1   
    57    23    24 1   
    58    23    65 1   
    59    23    66 1   
    60    24    25 1   
    61    24    29 1   
    62    24    67 1   
    63    25    68 1   
    64    26    27 1   
    65    26    69 1   
    66    26    70 1   
    67    27    28 1   
    68    27    29 1   
    69    27    71 1   
    70    28    72 1   
    71    29    30 2   
    72    30    31 1   
    73    30    73 1   
    74    31    32 1   
    75    31    74 1   
    76    31    75 1   
    77    32    76 1   
    78    42    77 1   
    79    43    77 1   
@<TRIPOS>SUBSTRUCTURE
     1 5YI         1 TEMP              0 ****  ****    0 ROOT
