@<TRIPOS>MOLECULE
5YI
   77    79     1     0     0
SMALL
bcc


@<TRIPOS>ATOM
      1 C12         -1.3640     2.9680    -0.2560 c6         1 5YI      -0.059400
      2 C13         -1.2460     1.4620    -0.0320 c5         1 5YI      -0.007800
      3 C14         -0.0760     1.2190     0.9490 c5         1 5YI      -0.038500
      4 C15         -0.3510    -0.1660     1.5270 c5         1 5YI      -0.040200
      5 C16         -1.8590    -0.1590     1.5420 c2         1 5YI      -0.151200
      6 C21         -4.4780     1.6730     1.6790 c3         1 5YI      -0.084100
      7 C24         -7.2460    -1.1230    -0.5620 c3         1 5YI       0.178800
      8 C29         -8.1960    -0.5280     1.7590 c3         1 5YI      -0.085600
      9 C27         -7.5370    -1.5750     0.8720 c3         1 5YI      -0.086400
     10 C26         -8.5150    -0.6470    -1.2860 c3         1 5YI      -0.086400
     11 C28         -9.6440    -1.6670    -1.3320 c3         1 5YI      -0.085600
     12 O03         -6.7010    -2.2640    -1.2070 oh         1 5YI      -0.587800
     13 S22         -4.5900    -0.5370    -0.0400 ss         1 5YI      -0.318200
     14 C20         -3.8140     1.0440     0.4600 c3         1 5YI       0.088600
     15 C17         -2.3640     0.7620     0.7180 c2         1 5YI      -0.119400
     16 C18         -1.0610     0.7270    -1.3670 c3         1 5YI      -0.078100
     17 C11         -0.0390     3.5340    -0.7820 c6         1 5YI      -0.071400
     18 C09          1.1920     3.1150     0.0410 c6         1 5YI      -0.041200
     19 C08          1.2220     1.6390     0.3500 c2         1 5YI      -0.077400
     20 C07          2.2490     0.8020     0.1370 ce         1 5YI      -0.134000
     21 C06          3.5390     1.1570    -0.4280 ce         1 5YI      -0.122000
     22 C05          4.5690     0.3280    -0.6590 c2         1 5YI      -0.097400
     23 C10          5.8690     0.8370    -1.2030 c6         1 5YI      -0.078700
     24 C01          7.0200     0.5110    -0.2410 c6         1 5YI       0.190300
     25 O01          6.8540     1.1530     1.0070 oh         1 5YI      -0.591800
     26 C04          4.5920    -1.1410    -0.3690 c6         1 5YI      -0.078700
     27 C03          5.7520    -1.5050     0.5770 c6         1 5YI       0.190300
     28 O02          5.8380    -2.8950     0.7630 oh         1 5YI      -0.591800
     29 C02          7.0480    -0.9740     0.0170 c2         1 5YI      -0.109400
     30 C30          8.0790    -1.7680    -0.2670 c2         1 5YI      -0.131200
     31 C31          9.3930    -1.3880    -0.8690 c3         1 5YI       0.171600
     32 O04         10.4130    -2.0200    -0.1190 oh         1 5YI      -0.589800
     33 H1          -2.1640     3.2080    -0.9620 hc         1 5YI       0.041200
     34 H2          -1.6230     3.4540     0.6910 hc         1 5YI       0.041200
     35 H3          -0.2640     1.9150     1.7810 hc         1 5YI       0.055700
     36 H4           0.0280    -0.9820     0.9000 hc         1 5YI       0.054700
     37 H5           0.0880    -0.3050     2.5170 hc         1 5YI       0.054700
     38 H6          -2.4450    -0.8530     2.1320 ha         1 5YI       0.147000
     39 H8          -4.4560     0.9900     2.5280 hc         1 5YI       0.041367
     40 H9          -3.9500     2.5870     1.9600 hc         1 5YI       0.041367
     41 H10         -5.5160     1.9450     1.4860 hc         1 5YI       0.041367
     42 H11         -6.1360     0.3990    -1.6300 h1         1 5YI       0.058700
     43 H12         -6.5600     0.8570     0.0080 h1         1 5YI       0.058700
     44 H13         -8.3590    -0.9310     2.7580 hc         1 5YI       0.034033
     45 H14         -7.5790     0.3650     1.8700 hc         1 5YI       0.034033
     46 H15         -9.1660    -0.2110     1.3740 hc         1 5YI       0.034033
     47 H16         -8.1750    -2.4610     0.8290 hc         1 5YI       0.050700
     48 H17         -6.6000    -1.8950     1.3330 hc         1 5YI       0.050700
     49 H18         -8.8670     0.2760    -0.8170 hc         1 5YI       0.050700
     50 H19         -8.2390    -0.3690    -2.3090 hc         1 5YI       0.050700
     51 H20         -9.3160    -2.6050    -1.7810 hc         1 5YI       0.034033
     52 H21        -10.0370    -1.8930    -0.3400 hc         1 5YI       0.034033
     53 H22        -10.4750    -1.2900    -1.9290 hc         1 5YI       0.034033
     54 H23         -6.5270    -2.0400    -2.1280 ho         1 5YI       0.403000
     55 H24         -3.9000     1.7290    -0.3870 h1         1 5YI       0.065700
     56 H26         -1.9700     0.8010    -1.9680 hc         1 5YI       0.038700
     57 H27         -0.2420     1.1330    -1.9590 hc         1 5YI       0.038700
     58 H28         -0.8550    -0.3320    -1.2100 hc         1 5YI       0.038700
     59 H29          0.1060     3.2260    -1.8190 hc         1 5YI       0.040200
     60 H30         -0.0910     4.6250    -0.8000 hc         1 5YI       0.040200
     61 H31          2.0930     3.4520    -0.4710 hc         1 5YI       0.045700
     62 H32          1.1660     3.6550     0.9960 hc         1 5YI       0.045700
     63 H33          2.1080    -0.2340     0.4250 ha         1 5YI       0.122000
     64 H34          3.6910     2.2000    -0.6860 ha         1 5YI       0.115000
     65 H35          6.0950     0.3610    -2.1630 hc         1 5YI       0.052700
     66 H36          5.8290     1.9150    -1.3880 hc         1 5YI       0.052700
     67 H37          7.9520     0.8330    -0.7160 h1         1 5YI       0.048200
     68 H38          6.6400     2.0780     0.8460 ho         1 5YI       0.404500
     69 H39          3.6540    -1.4920     0.0640 hc         1 5YI       0.052700
     70 H40          4.7400    -1.6940    -1.3050 hc         1 5YI       0.052700
     71 H41          5.5630    -1.0050     1.5380 h1         1 5YI       0.048200
     72 H42          5.0280    -3.1890     1.1900 ho         1 5YI       0.404500
     73 H43          7.9750    -2.8320    -0.0800 ha         1 5YI       0.155000
     74 H44          9.4090    -1.7280    -1.9140 h1         1 5YI       0.021200
     75 H45          9.5340    -0.3020    -0.8960 h1         1 5YI       0.021200
     76 H46         11.2420    -1.9060    -0.5930 ho         1 5YI       0.400000
     77 C23         -6.2240     0.0210    -0.6070 c3         1 5YI      -0.026300
@<TRIPOS>BOND
     1     1     2 1   
     2     1    17 1   
     3     1    33 1   
     4     1    34 1   
     5     2     3 1   
     6     2    15 1   
     7     2    16 1   
     8     3     4 1   
     9     3    19 1   
    10     3    35 1   
    11     4     5 1   
    12     4    36 1   
    13     4    37 1   
    14     5    15 2   
    15     5    38 1   
    16     6    14 1   
    17     6    39 1   
    18     6    40 1   
    19     6    41 1   
    20     7     9 1   
    21     7    10 1   
    22     7    12 1   
    23     7    77 1   
    24     8     9 1   
    25     8    44 1   
    26     8    45 1   
    27     8    46 1   
    28     9    47 1   
    29     9    48 1   
    30    10    11 1   
    31    10    49 1   
    32    10    50 1   
    33    11    51 1   
    34    11    52 1   
    35    11    53 1   
    36    12    54 1   
    37    13    14 1   
    38    13    77 1   
    39    14    15 1   
    40    14    55 1   
    41    16    56 1   
    42    16    57 1   
    43    16    58 1   
    44    17    18 1   
    45    17    59 1   
    46    17    60 1   
    47    18    19 1   
    48    18    61 1   
    49    18    62 1   
    50    19    20 2   
    51    20    21 1   
    52    20    63 1   
    53    21    22 2   
    54    21    64 1   
    55    22    23 1   
    56    22    26 1   
    57    23    24 1   
    58    23    65 1   
    59    23    66 1   
    60    24    25 1   
    61    24    29 1   
    62    24    67 1   
    63    25    68 1   
    64    26    27 1   
    65    26    69 1   
    66    26    70 1   
    67    27    28 1   
    68    27    29 1   
    69    27    71 1   
    70    28    72 1   
    71    29    30 2   
    72    30    31 1   
    73    30    73 1   
    74    31    32 1   
    75    31    74 1   
    76    31    75 1   
    77    32    76 1   
    78    42    77 1   
    79    43    77 1   
@<TRIPOS>SUBSTRUCTURE
     1 5YI         1 TEMP              0 ****  ****    0 ROOT
