@<TRIPOS>MOLECULE
5YJ
   41    43     1     0     0
SMALL
abcg2


@<TRIPOS>ATOM
      1 C1         110.8180    -3.6460   108.5940 cc         1 5YJ       0.041400
      2 C10        105.2230    -2.0160   110.6890 ca         1 5YJ       0.306000
      3 C11        104.3230    -2.6740   109.8500 ca         1 5YJ      -0.154500
      4 C12        102.9610    -2.4330   109.9570 ca         1 5YJ       0.153000
      5 C13        102.4040    -1.5300   110.8560 ca         1 5YJ      -0.080300
      6 C14        103.3390    -0.8850   111.6720 ca         1 5YJ       0.153000
      7 C15        104.6980    -1.1090   111.6170 ca         1 5YJ      -0.154500
      8 C17        111.9540    -5.7690   108.5850 c          1 5YJ       0.619000
      9 C2         110.4370    -2.4480   109.4260 c          1 5YJ       0.604300
     10 C20        111.0040    -4.8290   106.5020 c          1 5YJ       0.588200
     11 C22        110.5590    -3.6920   107.2760 cd         1 5YJ      -0.347200
     12 C23        100.9390    -1.2400   110.9720 c3         1 5YJ      -0.043800
     13 C5         108.8840    -1.4980   111.0400 c6         1 5YJ       0.089500
     14 C6         107.4800    -1.1040   110.6190 c6         1 5YJ       0.177300
     15 C8         107.0710    -3.3440   109.8230 c6         1 5YJ       0.177300
     16 C9         108.4790    -3.7400   110.2370 c6         1 5YJ       0.089500
     17 N16        111.4950    -4.6440   109.2280 ns         1 5YJ      -0.515600
     18 N19        111.6730    -5.7930   107.2440 ns         1 5YJ      -0.471500
     19 N4         109.3610    -2.5880   110.2090 n          1 5YJ      -0.403800
     20 N7         106.5910    -2.2580   110.6520 nh         1 5YJ      -0.791400
     21 O18        112.5490    -6.6550   109.1570 o          1 5YJ      -0.543000
     22 O21        110.8310    -4.9790   105.3080 o          1 5YJ      -0.514000
     23 O3         111.1250    -1.4460   109.3440 o          1 5YJ      -0.558100
     24 CL24       102.7670     0.2560   112.8480 cl         1 5YJ      -0.198000
     25 CL25       101.9360    -3.3170   108.8660 cl         1 5YJ      -0.198000
     26 H1         104.6670    -3.3670   109.0970 ha         1 5YJ       0.133500
     27 H2         105.3440    -0.5950   112.3150 ha         1 5YJ       0.133500
     28 H3         110.0170    -2.8980   106.7840 ha         1 5YJ       0.230000
     29 H4         100.5720    -1.4570   111.9750 hc         1 5YJ       0.055367
     30 H5         100.7340    -0.1870   110.7740 hc         1 5YJ       0.055367
     31 H6         100.3520    -1.8270   110.2720 hc         1 5YJ       0.055367
     32 H7         108.8840    -1.8270   112.0830 h1         1 5YJ       0.070450
     33 H8         109.5500    -0.6440   110.9520 h1         1 5YJ       0.070450
     34 H9         107.5110    -0.6680   109.6110 h1         1 5YJ       0.054700
     35 H10        107.1290    -0.3300   111.2970 h1         1 5YJ       0.054700
     36 H11        107.0630    -3.0840   108.7540 h1         1 5YJ       0.054700
     37 H12        106.4350    -4.2200   109.9570 h1         1 5YJ       0.054700
     38 H13        108.4650    -4.1460   111.2510 h1         1 5YJ       0.070450
     39 H14        108.8300    -4.5260   109.5710 h1         1 5YJ       0.070450
     40 H15        111.6830    -4.5870   110.2210 hn         1 5YJ       0.467000
     41 H16        112.0010    -6.6090   106.7420 hn         1 5YJ       0.346500
@<TRIPOS>BOND
     1     1     9 1   
     2     1    11 2   
     3     1    17 1   
     4     2     3 ar  
     5     2     7 ar  
     6     2    20 1   
     7     3     4 ar  
     8     3    26 1   
     9     4     5 ar  
    10     4    25 1   
    11     5     6 ar  
    12     5    12 1   
    13     6     7 ar  
    14     6    24 1   
    15     7    27 1   
    16     8    17 1   
    17     8    18 1   
    18     8    21 2   
    19     9    19 1   
    20     9    23 2   
    21    10    11 1   
    22    10    18 1   
    23    10    22 2   
    24    11    28 1   
    25    12    29 1   
    26    12    30 1   
    27    12    31 1   
    28    13    14 1   
    29    13    19 1   
    30    13    32 1   
    31    13    33 1   
    32    14    20 1   
    33    14    34 1   
    34    14    35 1   
    35    15    16 1   
    36    15    20 1   
    37    15    36 1   
    38    15    37 1   
    39    16    19 1   
    40    16    38 1   
    41    16    39 1   
    42    17    40 1   
    43    18    41 1   
@<TRIPOS>SUBSTRUCTURE
     1 5YJ         1 TEMP              0 ****  ****    0 ROOT
