@<TRIPOS>MOLECULE
5YJ
   41    43     1     0     0
SMALL
No Charge or Current Charge


@<TRIPOS>ATOM
      1 C1         110.9300    -3.6860   108.3170 cc         1 5YJ       0.041400
      2 C10        105.0260    -1.9440   110.6840 ca         1 5YJ       0.306000
      3 C11        104.0140    -2.3950   109.8210 ca         1 5YJ      -0.154500
      4 C12        102.6630    -2.1560   110.1150 ca         1 5YJ       0.153000
      5 C13        102.2910    -1.4630   111.2900 ca         1 5YJ      -0.080300
      6 C14        103.3180    -1.0010   112.1470 ca         1 5YJ       0.153000
      7 C15        104.6650    -1.2450   111.8430 ca         1 5YJ      -0.154500
      8 C17        111.6930    -5.9730   108.7740 c          1 5YJ       0.619000
      9 C2         110.1710    -2.4650   108.7900 c          1 5YJ       0.604300
     10 C20        112.4370    -4.8630   106.7250 c          1 5YJ       0.588200
     11 C22        111.6690    -3.6870   107.1520 cd         1 5YJ      -0.347200
     12 C23        100.8150    -1.2010   111.6140 c3         1 5YJ      -0.043800
     13 C5         108.7880    -1.4660   110.6600 c6         1 5YJ       0.089500
     14 C6         107.3430    -1.0290   110.3030 c6         1 5YJ       0.177300
     15 C8         106.8290    -3.3690   109.6170 c6         1 5YJ       0.177300
     16 C9         108.2940    -3.7850   109.9400 c6         1 5YJ       0.089500
     17 N16        111.0040    -4.8410   109.0950 ns         1 5YJ      -0.515600
     18 N19        112.3600    -5.9100   107.5930 ns         1 5YJ      -0.471500
     19 N4         109.2470    -2.6330   109.8540 n          1 5YJ      -0.403800
     20 N7         106.3920    -2.1760   110.4020 nh         1 5YJ      -0.791400
     21 O18        111.7120    -6.9520   109.4920 o          1 5YJ      -0.543000
     22 O21        113.0880    -4.9150   105.6970 o          1 5YJ      -0.514000
     23 O3         110.3520    -1.3560   108.2990 o          1 5YJ      -0.558100
     24 Cl24       102.9590    -0.0940   113.6180 cl         1 5YJ      -0.198000
     25 Cl25       101.4580    -2.7310   108.9600 cl         1 5YJ      -0.198000
     26 H1         104.2690    -2.9210   108.9070 ha         1 5YJ       0.133500
     27 H2         105.4360    -0.8940   112.5210 ha         1 5YJ       0.133500
     28 H3         111.7190    -2.8340   106.4860 ha         1 5YJ       0.230000
     29 H4         100.6290    -1.1400   112.6920 hc         1 5YJ       0.055367
     30 H5         100.4790    -0.2610   111.1630 hc         1 5YJ       0.055367
     31 H6         100.1620    -2.0000   111.2460 hc         1 5YJ       0.055367
     32 H7         108.8200    -1.7390   111.7230 h1         1 5YJ       0.070450
     33 H8         109.4690    -0.6130   110.5310 h1         1 5YJ       0.070450
     34 H9         107.3350    -0.6250   109.2800 h1         1 5YJ       0.054700
     35 H10        107.0490    -0.2120   110.9770 h1         1 5YJ       0.054700
     36 H11        106.7540    -3.1520   108.5410 h1         1 5YJ       0.054700
     37 H12        106.1730    -4.2280   109.8250 h1         1 5YJ       0.054700
     38 H13        108.3290    -4.2040   110.9550 h1         1 5YJ       0.070450
     39 H14        108.5580    -4.5830   109.2360 h1         1 5YJ       0.070450
     40 H15        110.5630    -4.8720   110.0080 hn         1 5YJ       0.467000
     41 H16        112.8760    -6.7350   107.3350 hn         1 5YJ       0.346500
@<TRIPOS>BOND
     1     1     9 1   
     2     1    11 2   
     3     1    17 1   
     4     2     3 ar  
     5     2     7 ar  
     6     2    20 1   
     7     3     4 ar  
     8     3    26 1   
     9     4     5 ar  
    10     4    25 1   
    11     5     6 ar  
    12     5    12 1   
    13     6     7 ar  
    14     6    24 1   
    15     7    27 1   
    16     8    17 1   
    17     8    18 1   
    18     8    21 2   
    19     9    19 1   
    20     9    23 2   
    21    10    11 1   
    22    10    18 1   
    23    10    22 2   
    24    11    28 1   
    25    12    29 1   
    26    12    30 1   
    27    12    31 1   
    28    13    14 1   
    29    13    19 1   
    30    13    32 1   
    31    13    33 1   
    32    14    20 1   
    33    14    34 1   
    34    14    35 1   
    35    15    16 1   
    36    15    20 1   
    37    15    36 1   
    38    15    37 1   
    39    16    19 1   
    40    16    38 1   
    41    16    39 1   
    42    17    40 1   
    43    18    41 1   
@<TRIPOS>SUBSTRUCTURE
     1 5YJ         1 TEMP              0 ****  ****    0 ROOT
