@<TRIPOS>MOLECULE
5YM
   62    61     1     0     0
SMALL
abcg2


@<TRIPOS>ATOM
      1 C13         17.2210    12.4710    25.6190 c3         1 5YM      -0.075400
      2 C12         16.0690    11.5180    25.3320 c3         1 5YM      -0.072400
      3 C11         15.3260    11.8590    24.0390 c3         1 5YM      -0.042200
      4 C10         14.2250    10.8880    23.7500 c2         1 5YM      -0.215200
      5 C14         17.9300    12.1730    26.9330 c3         1 5YM      -0.074400
      6 C15         19.1410    13.0640    27.1770 c3         1 5YM      -0.075400
      7 C21         23.6700    12.6520    31.3030 c3         1 5YM       0.102000
      8 C16         19.8110    12.7950    28.5170 c3         1 5YM      -0.069400
      9 C17         21.0660    13.6410    28.7210 c3         1 5YM      -0.157400
     10 C18         21.6710    13.4190    30.0900 c          1 5YM       0.598100
     11 C22         24.5610    13.8050    31.7210 c3         1 5YM       0.134600
     12 C01         18.5860     3.2290    18.1140 c3         1 5YM      -0.090100
     13 C02         17.8720     4.5600    18.3060 c3         1 5YM      -0.076400
     14 C03         17.1720     4.6610    19.6560 c3         1 5YM      -0.074400
     15 C04         16.4030     5.9620    19.8760 c3         1 5YM      -0.073400
     16 C05         17.2920     7.1950    20.0090 c3         1 5YM      -0.073400
     17 C06         16.5230     8.5070    20.1340 c3         1 5YM      -0.074400
     18 C07         15.6760     8.6360    21.3940 c3         1 5YM      -0.072400
     19 C08         14.9920    10.0010    21.4940 c3         1 5YM      -0.044200
     20 C09         14.0870    10.1040    22.6810 c2         1 5YM      -0.215200
     21 N20         22.9180    12.9180    30.0990 ns         1 5YM      -0.499900
     22 O19         21.0420    13.6590    31.1130 o          1 5YM      -0.613100
     23 O23         25.5050    14.0310    30.6990 oh         1 5YM      -0.669000
     24 H1          17.9420    12.4210    24.7960 hc         1 5YM       0.037200
     25 H2          16.8490    13.5020    25.6340 hc         1 5YM       0.037200
     26 H3          15.3640    11.5300    26.1700 hc         1 5YM       0.040200
     27 H4          16.4520    10.4940    25.2700 hc         1 5YM       0.040200
     28 H5          16.0400    11.9050    23.2140 hc         1 5YM       0.043700
     29 H6          14.9040    12.8660    24.1350 hc         1 5YM       0.043700
     30 H7          13.4660    10.8130    24.5240 ha         1 5YM       0.165000
     31 H8          17.2230    12.2850    27.7620 hc         1 5YM       0.039700
     32 H9          18.2480    11.1240    26.9450 hc         1 5YM       0.039700
     33 H10         19.8650    12.9180    26.3680 hc         1 5YM       0.037200
     34 H11         18.8390    14.1160    27.1290 hc         1 5YM       0.037200
     35 H12         22.9780    12.4260    32.1130 h1         1 5YM       0.063200
     36 H13         24.2750    11.7590    31.1390 h1         1 5YM       0.063200
     37 H14         19.1020    12.9920    29.3250 hc         1 5YM       0.051700
     38 H15         20.0740    11.7350    28.5860 hc         1 5YM       0.051700
     39 H16         21.7860    13.4300    27.9270 hc         1 5YM       0.057200
     40 H17         20.8080    14.7010    28.6390 hc         1 5YM       0.057200
     41 H18         25.0400    13.5420    32.6730 h1         1 5YM       0.031200
     42 H19         23.9410    14.6910    31.9060 h1         1 5YM       0.031200
     43 H20         19.0680     3.1690    17.1370 hc         1 5YM       0.030700
     44 H21         19.3580     3.0820    18.8720 hc         1 5YM       0.030700
     45 H22         17.8890     2.3920    18.1900 hc         1 5YM       0.030700
     46 H23         18.5960     5.3720    18.1920 hc         1 5YM       0.036700
     47 H24         17.1340     4.6990    17.5090 hc         1 5YM       0.036700
     48 H25         16.4780     3.8200    19.7520 hc         1 5YM       0.036700
     49 H26         17.9080     4.5340    20.4590 hc         1 5YM       0.036700
     50 H27         15.7910     5.8570    20.7760 hc         1 5YM       0.037700
     51 H28         15.6990     6.1120    19.0500 hc         1 5YM       0.037700
     52 H29         17.9510     7.2680    19.1400 hc         1 5YM       0.038200
     53 H30         17.9500     7.0720    20.8770 hc         1 5YM       0.038200
     54 H31         17.2360     9.3370    20.1050 hc         1 5YM       0.036200
     55 H32         15.8810     8.6320    19.2540 hc         1 5YM       0.036200
     56 H33         14.9130     7.8520    21.4220 hc         1 5YM       0.040700
     57 H34         16.3050     8.4820    22.2770 hc         1 5YM       0.040700
     58 H35         15.7520    10.7860    21.5030 hc         1 5YM       0.042700
     59 H36         14.4010    10.1600    20.5840 hc         1 5YM       0.042700
     60 H37         13.2270     9.4390    22.6580 ha         1 5YM       0.164000
     61 H38         23.3890    12.7890    29.2190 hn         1 5YM       0.319500
     62 H39         26.0050    14.8220    30.9170 ho         1 5YM       0.445000
@<TRIPOS>BOND
     1     1     2 1   
     2     1     5 1   
     3     1    24 1   
     4     1    25 1   
     5     2     3 1   
     6     2    26 1   
     7     2    27 1   
     8     3     4 1   
     9     3    28 1   
    10     3    29 1   
    11     4    20 2   
    12     4    30 1   
    13     5     6 1   
    14     5    31 1   
    15     5    32 1   
    16     6     8 1   
    17     6    33 1   
    18     6    34 1   
    19     7    11 1   
    20     7    21 1   
    21     7    35 1   
    22     7    36 1   
    23     8     9 1   
    24     8    37 1   
    25     8    38 1   
    26     9    10 1   
    27     9    39 1   
    28     9    40 1   
    29    10    21 1   
    30    10    22 2   
    31    11    23 1   
    32    11    41 1   
    33    11    42 1   
    34    12    13 1   
    35    12    43 1   
    36    12    44 1   
    37    12    45 1   
    38    13    14 1   
    39    13    46 1   
    40    13    47 1   
    41    14    15 1   
    42    14    48 1   
    43    14    49 1   
    44    15    16 1   
    45    15    50 1   
    46    15    51 1   
    47    16    17 1   
    48    16    52 1   
    49    16    53 1   
    50    17    18 1   
    51    17    54 1   
    52    17    55 1   
    53    18    19 1   
    54    18    56 1   
    55    18    57 1   
    56    19    20 1   
    57    19    58 1   
    58    19    59 1   
    59    20    60 1   
    60    21    61 1   
    61    23    62 1   
@<TRIPOS>SUBSTRUCTURE
     1 5YM         1 TEMP              0 ****  ****    0 ROOT
