@<TRIPOS>MOLECULE
5YM
   62    61     1     0     0
SMALL
No Charge or Current Charge


@<TRIPOS>ATOM
      1 C13         16.7420    12.4460    25.1730 c3         1 5YM      -0.075400
      2 C12         15.4700    11.6160    24.8920 c3         1 5YM      -0.072400
      3 C11         14.6630    12.1340    23.6840 c3         1 5YM      -0.042200
      4 C10         13.4380    11.2780    23.4110 c2         1 5YM      -0.215200
      5 C14         17.5520    11.9210    26.3790 c3         1 5YM      -0.074400
      6 C15         18.8250    12.7480    26.6580 c3         1 5YM      -0.075400
      7 C21         23.8040    11.2950    30.0070 c3         1 5YM       0.102000
      8 C16         19.6360    12.2220    27.8630 c3         1 5YM      -0.069400
      9 C17         20.9110    13.0520    28.1420 c3         1 5YM      -0.157400
     10 C18         21.6930    12.5000    29.3400 c          1 5YM       0.598100
     11 C22         24.6730    12.3800    30.6910 c3         1 5YM       0.134600
     12 C01         20.2280     4.3090    20.4140 c3         1 5YM      -0.090100
     13 C02         19.1250     5.3310    20.0780 c3         1 5YM      -0.076400
     14 C03         18.1620     5.5890    21.2610 c3         1 5YM      -0.074400
     15 C04         16.9830     6.5380    20.9380 c3         1 5YM      -0.073400
     16 C05         17.4000     8.0000    20.6400 c3         1 5YM      -0.073400
     17 C06         16.2220     8.9510    20.3190 c3         1 5YM      -0.074400
     18 C07         15.2580     9.2010    21.5030 c3         1 5YM      -0.072400
     19 C08         14.1630    10.2400    21.1820 c3         1 5YM      -0.044200
     20 C09         13.2290    10.4710    22.3550 c2         1 5YM      -0.215200
     21 N20         22.8580    11.8410    29.0230 ns         1 5YM      -0.499900
     22 O19         21.3220    12.6540    30.4950 o          1 5YM      -0.613100
     23 O23         25.4710    13.0820    29.7220 oh         1 5YM      -0.669000
     24 H1          17.3800    12.4400    24.2810 hc         1 5YM       0.037200
     25 H2          16.4580    13.4900    25.3570 hc         1 5YM       0.037200
     26 H3          14.8290    11.6230    25.7820 hc         1 5YM       0.040200
     27 H4          15.7540    10.5720    24.7110 hc         1 5YM       0.040200
     28 H5          15.3250    12.1700    22.8110 hc         1 5YM       0.043700
     29 H6          14.3530    13.1690    23.8740 hc         1 5YM       0.043700
     30 H7          12.6730    11.3540    24.1860 ha         1 5YM       0.165000
     31 H8          16.9140    11.9280    27.2720 hc         1 5YM       0.039700
     32 H9          17.8340    10.8760    26.1950 hc         1 5YM       0.039700
     33 H10         19.4620    12.7420    25.7650 hc         1 5YM       0.037200
     34 H11         18.5430    13.7920    26.8420 hc         1 5YM       0.037200
     35 H12         23.2420    10.7490    30.7760 h1         1 5YM       0.063200
     36 H13         24.4600    10.5730    29.5030 h1         1 5YM       0.063200
     37 H14         18.9980    12.2270    28.7560 hc         1 5YM       0.051700
     38 H15         19.9190    11.1770    27.6790 hc         1 5YM       0.051700
     39 H16         21.5400    13.0340    27.2440 hc         1 5YM       0.057200
     40 H17         20.6130    14.0830    28.3640 hc         1 5YM       0.057200
     41 H18         25.3200    11.8950    31.4350 h1         1 5YM       0.031200
     42 H19         24.0190    13.0810    31.2270 h1         1 5YM       0.031200
     43 H20         20.8870     4.1600    19.5490 hc         1 5YM       0.030700
     44 H21         20.8400     4.6600    21.2540 hc         1 5YM       0.030700
     45 H22         19.7920     3.3400    20.6830 hc         1 5YM       0.030700
     46 H23         19.6020     6.2700    19.7750 hc         1 5YM       0.036700
     47 H24         18.5530     4.9670    19.2160 hc         1 5YM       0.036700
     48 H25         17.7480     4.6280    21.5920 hc         1 5YM       0.036700
     49 H26         18.7280     5.9920    22.1100 hc         1 5YM       0.036700
     50 H27         16.3010     6.5260    21.7970 hc         1 5YM       0.037700
     51 H28         16.4210     6.1380    20.0860 hc         1 5YM       0.037700
     52 H29         18.0820     8.0120    19.7810 hc         1 5YM       0.038200
     53 H30         17.9640     8.4000    21.4930 hc         1 5YM       0.038200
     54 H31         16.6370     9.9130    19.9950 hc         1 5YM       0.036200
     55 H32         15.6570     8.5520    19.4670 hc         1 5YM       0.036200
     56 H33         14.7740     8.2610    21.7920 hc         1 5YM       0.040700
     57 H34         15.8360     9.5450    22.3700 hc         1 5YM       0.040700
     58 H35         14.6360    11.1810    20.8770 hc         1 5YM       0.042700
     59 H36         13.5860     9.8990    20.3130 hc         1 5YM       0.042700
     60 H37         12.2960     9.9060    22.2900 ha         1 5YM       0.164000
     61 H38         23.1000    11.7870    28.0410 hn         1 5YM       0.319500
     62 H39         25.9840    13.7640    30.2110 ho         1 5YM       0.445000
@<TRIPOS>BOND
     1     1     2 1   
     2     1     5 1   
     3     1    24 1   
     4     1    25 1   
     5     2     3 1   
     6     2    26 1   
     7     2    27 1   
     8     3     4 1   
     9     3    28 1   
    10     3    29 1   
    11     4    20 2   
    12     4    30 1   
    13     5     6 1   
    14     5    31 1   
    15     5    32 1   
    16     6     8 1   
    17     6    33 1   
    18     6    34 1   
    19     7    11 1   
    20     7    21 1   
    21     7    35 1   
    22     7    36 1   
    23     8     9 1   
    24     8    37 1   
    25     8    38 1   
    26     9    10 1   
    27     9    39 1   
    28     9    40 1   
    29    10    21 1   
    30    10    22 2   
    31    11    23 1   
    32    11    41 1   
    33    11    42 1   
    34    12    13 1   
    35    12    43 1   
    36    12    44 1   
    37    12    45 1   
    38    13    14 1   
    39    13    46 1   
    40    13    47 1   
    41    14    15 1   
    42    14    48 1   
    43    14    49 1   
    44    15    16 1   
    45    15    50 1   
    46    15    51 1   
    47    16    17 1   
    48    16    52 1   
    49    16    53 1   
    50    17    18 1   
    51    17    54 1   
    52    17    55 1   
    53    18    19 1   
    54    18    56 1   
    55    18    57 1   
    56    19    20 1   
    57    19    58 1   
    58    19    59 1   
    59    20    60 1   
    60    21    61 1   
    61    23    62 1   
@<TRIPOS>SUBSTRUCTURE
     1 5YM         1 TEMP              0 ****  ****    0 ROOT
