@<TRIPOS>MOLECULE
5YN
   38    40     1     0     0
SMALL
abcg2


@<TRIPOS>ATOM
      1 C16          8.0320    -0.7320    18.4940 ca         1 5YN      -0.161500
      2 C19         16.3580    -3.4380    16.8910 c          1 5YN       0.617000
      3 C1          14.6490    -1.8180    17.4400 cc         1 5YN       0.055400
      4 C6          10.7750    -1.4310    18.4940 c6         1 5YN       0.184800
      5 C5          12.1420    -1.8920    18.9800 c6         1 5YN       0.091000
      6 C8          11.2610     0.7990    19.3440 c6         1 5YN       0.184800
      7 C9          12.6190     0.3280    19.8400 c6         1 5YN       0.091000
      8 C10          8.9430    -0.0010    19.2710 ca         1 5YN       0.326000
      9 C11          8.4320     1.0390    20.0660 ca         1 5YN      -0.161500
     10 C12          7.0800     1.3190    20.0830 ca         1 5YN       0.165500
     11 C13          6.1630     0.5840    19.3240 ca         1 5YN       0.084000
     12 O3          15.1200     0.1600    18.6010 o          1 5YN      -0.576100
     13 C14          6.6760    -0.4440    18.5360 ca         1 5YN       0.165500
     14 C22         14.4770    -2.9950    15.3340 c          1 5YN       0.586200
     15 C24         13.9770    -2.0310    16.2890 cd         1 5YN      -0.358200
     16 N18         15.8010    -2.4970    17.7280 ns         1 5YN      -0.505600
     17 N21         15.6520    -3.6360    15.7270 ns         1 5YN      -0.469500
     18 N4          13.0840    -0.7780    19.0080 n          1 5YN      -0.401800
     19 N7          10.2990    -0.3060    19.2920 nh         1 5YN      -0.799400
     20 O23         13.9570    -3.2690    14.2600 o          1 5YN      -0.519000
     21 CL15         5.6140    -1.4030    17.5440 cl         1 5YN      -0.173000
     22 CL17         4.4690     0.9390    19.3600 cl         1 5YN      -0.146000
     23 CL25         6.5280     2.6190    21.1030 cl         1 5YN      -0.173000
     24 H1           8.3580    -1.5200    17.8370 ha         1 5YN       0.135500
     25 H2          10.8280    -1.1690    17.4280 h1         1 5YN       0.056700
     26 H3          10.0900    -2.2690    18.6060 h1         1 5YN       0.056700
     27 H4          12.0530    -2.2800    19.9980 h1         1 5YN       0.072450
     28 H5          12.5120    -2.6880    18.3430 h1         1 5YN       0.072450
     29 H6          11.3740     1.2420    18.3450 h1         1 5YN       0.056700
     30 H7          10.9080     1.5750    20.0150 h1         1 5YN       0.056700
     31 H8          12.5450    -0.0160    20.8750 h1         1 5YN       0.072450
     32 H9          13.3390     1.1380    19.7850 h1         1 5YN       0.072450
     33 H10          9.0790     1.6220    20.7010 ha         1 5YN       0.135500
     34 H11         13.0720    -1.4940    16.0560 ha         1 5YN       0.224000
     35 H13         16.0360    -4.3210    15.0880 hn         1 5YN       0.347500
     36 H12         16.3070    -2.2980    18.5800 hn         1 5YN       0.474000
     37 C2          14.2880    -0.7290    18.4210 c          1 5YN       0.602300
     38 O20         17.3840    -4.0390    17.1620 o          1 5YN      -0.542000
@<TRIPOS>BOND
     1     1     8 ar  
     2     1    13 ar  
     3     1    24 1   
     4     2    16 1   
     5     2    17 1   
     6     2    38 2   
     7     3    15 2   
     8     3    16 1   
     9     3    37 1   
    10     4     5 1   
    11     4    19 1   
    12     4    25 1   
    13     4    26 1   
    14     5    18 1   
    15     5    27 1   
    16     5    28 1   
    17     6     7 1   
    18     6    19 1   
    19     6    29 1   
    20     6    30 1   
    21     7    18 1   
    22     7    31 1   
    23     7    32 1   
    24     8     9 ar  
    25     8    19 1   
    26     9    10 ar  
    27     9    33 1   
    28    10    11 ar  
    29    10    23 1   
    30    11    13 ar  
    31    11    22 1   
    32    12    37 2   
    33    13    21 1   
    34    14    15 1   
    35    14    17 1   
    36    14    20 2   
    37    15    34 1   
    38    16    36 1   
    39    17    35 1   
    40    18    37 1   
@<TRIPOS>SUBSTRUCTURE
     1 5YN         1 TEMP              0 ****  ****    0 ROOT
