@<TRIPOS>MOLECULE
5YN
   38    40     1     0     0
SMALL
No Charge or Current Charge


@<TRIPOS>ATOM
      1 C16          7.7490    -0.3560    18.3750 ca         1 5YN      -0.161500
      2 C19         16.8270    -3.3460    16.9440 c          1 5YN       0.617000
      3 C1          14.8830    -2.0030    17.5940 cc         1 5YN       0.055400
      4 C6          10.5530    -1.3740    18.2690 c6         1 5YN       0.184800
      5 C5          11.9900    -1.7990    18.6710 c6         1 5YN       0.091000
      6 C8          11.0770     0.9670    18.8960 c6         1 5YN       0.184800
      7 C9          12.5210     0.5440    19.2810 c6         1 5YN       0.091000
      8 C10          8.7450     0.1000    19.2560 ca         1 5YN       0.326000
      9 C11          8.3680     0.8300    20.3930 ca         1 5YN      -0.161500
     10 C12          7.0170     1.1050    20.6540 ca         1 5YN       0.165500
     11 C13          6.0180     0.6490    19.7710 ca         1 5YN       0.084000
     12 O3          15.1350    -0.4270    19.3840 o          1 5YN      -0.576100
     13 C14          6.3950    -0.0840    18.6280 ca         1 5YN       0.165500
     14 C22         14.8150    -3.4240    15.5550 c          1 5YN       0.586200
     15 C24         14.2030    -2.4650    16.4830 cd         1 5YN      -0.358200
     16 N18         16.1880    -2.4550    17.7530 ns         1 5YN      -0.505600
     17 N21         16.0850    -3.7810    15.8930 ns         1 5YN      -0.469500
     18 N4          12.9970    -0.6910    18.5880 n          1 5YN      -0.401800
     19 N7          10.1130    -0.1630    19.0190 nh         1 5YN      -0.799400
     20 O23         14.2560    -3.8650    14.5660 o          1 5YN      -0.519000
     21 Cl15         5.1850    -0.6750    17.4870 cl         1 5YN      -0.173000
     22 Cl17         4.3120     0.9930    20.0930 cl         1 5YN      -0.146000
     23 Cl25         6.6010     2.0240    22.1010 cl         1 5YN      -0.173000
     24 H1           8.0170    -0.9120    17.4830 ha         1 5YN       0.135500
     25 H2          10.5280    -1.1770    17.1870 h1         1 5YN       0.056700
     26 H3           9.8750    -2.2170    18.4680 h1         1 5YN       0.056700
     27 H4          11.9560    -2.1420    19.7150 h1         1 5YN       0.072450
     28 H5          12.2840    -2.6740    18.0810 h1         1 5YN       0.072450
     29 H6          11.0820     1.3350    17.8590 h1         1 5YN       0.056700
     30 H7          10.7790     1.8120    19.5340 h1         1 5YN       0.056700
     31 H8          12.5600     0.3760    20.3660 h1         1 5YN       0.072450
     32 H9          13.2020     1.3780    19.0570 h1         1 5YN       0.072450
     33 H10          9.1270     1.1770    21.0880 ha         1 5YN       0.135500
     34 H11         13.2140    -2.1290    16.1980 ha         1 5YN       0.224000
     35 H13         16.5370    -4.4390    15.2800 hn         1 5YN       0.347500
     36 H12         16.7440    -2.1150    18.5340 hn         1 5YN       0.474000
     37 C2          14.3790    -0.9910    18.5980 c          1 5YN       0.602300
     38 O20         17.9660    -3.7160    17.1480 o          1 5YN      -0.542000
@<TRIPOS>BOND
     1     1     8 ar  
     2     1    13 ar  
     3     1    24 1   
     4     2    16 1   
     5     2    17 1   
     6     2    38 2   
     7     3    15 2   
     8     3    16 1   
     9     3    37 1   
    10     4     5 1   
    11     4    19 1   
    12     4    25 1   
    13     4    26 1   
    14     5    18 1   
    15     5    27 1   
    16     5    28 1   
    17     6     7 1   
    18     6    19 1   
    19     6    29 1   
    20     6    30 1   
    21     7    18 1   
    22     7    31 1   
    23     7    32 1   
    24     8     9 ar  
    25     8    19 1   
    26     9    10 ar  
    27     9    33 1   
    28    10    11 ar  
    29    10    23 1   
    30    11    13 ar  
    31    11    22 1   
    32    12    37 2   
    33    13    21 1   
    34    14    15 1   
    35    14    17 1   
    36    14    20 2   
    37    15    34 1   
    38    16    36 1   
    39    17    35 1   
    40    18    37 1   
@<TRIPOS>SUBSTRUCTURE
     1 5YN         1 TEMP              0 ****  ****    0 ROOT
