@<TRIPOS>MOLECULE
5YP
   52    55     1     0     0
SMALL
abcg2


@<TRIPOS>ATOM
      1 C2          16.2140   -37.0890    44.8350 ca         1 5YP      -0.093500
      2 N3          26.0270   -32.3480    40.3010 nu         1 5YP      -0.856100
      3 C4          14.1460   -37.6720    45.9520 ca         1 5YP      -0.090000
      4 C5          13.7870   -36.3290    46.0400 ca         1 5YP      -0.140000
      5 C8          18.0870   -38.6980    44.2680 cc         1 5YP      -0.295000
      6 C1          15.8580   -35.7390    44.9160 ca         1 5YP      -0.116000
      7 C10         21.3750   -36.6740    41.7890 c          1 5YP       0.609700
      8 C11         22.1930   -35.6560    41.0650 ca         1 5YP      -0.101600
      9 C12         21.9770   -34.2800    41.1840 ca         1 5YP      -0.088000
     10 C13         22.8010   -33.3830    40.5230 ca         1 5YP      -0.024000
     11 C14         23.8420   -33.8690    39.7380 ca         1 5YP      -0.288500
     12 C15         24.0700   -35.2340    39.6050 ca         1 5YP      -0.024000
     13 C16         23.2410   -36.1230    40.2710 ca         1 5YP      -0.088000
     14 C17         26.7030   -33.4380    40.9430 ca         1 5YP       0.202000
     15 C18         27.8900   -33.9210    40.4040 ca         1 5YP      -0.046000
     16 C19         28.5260   -35.0020    41.0040 ca         1 5YP      -0.114000
     17 C20         27.9810   -35.5960    42.1320 ca         1 5YP      -0.049000
     18 C21         26.7850   -35.1160    42.6760 ca         1 5YP      -0.163600
     19 C22         26.1510   -34.0310    42.0730 ca         1 5YP      -0.097000
     20 C23         26.1890   -35.8070    43.8590 c          1 5YP       0.577700
     21 C24         24.8120   -35.3980    44.3130 c3         1 5YP      -0.191100
     22 C3          15.3410   -38.0510    45.3580 ca         1 5YP      -0.112000
     23 C6          14.6620   -35.3980    45.5140 ca         1 5YP       0.158000
     24 C7          17.4900   -37.4700    44.2120 cd         1 5YP       0.368500
     25 C9          19.3080   -37.0260    43.0300 cc         1 5YP       0.535300
     26 F1          14.3350   -34.0810    45.5900 f          1 5YP      -0.185000
     27 N1          18.2040   -36.5260    43.5000 nd         1 5YP      -0.703000
     28 N2          20.1740   -36.2550    42.2820 ns         1 5YP      -0.462400
     29 O1          21.7570   -37.8290    41.9420 o          1 5YP      -0.567100
     30 O2          25.7770   -33.4160    38.0480 o          1 5YP      -0.527000
     31 O3          24.3280   -31.4930    38.7110 o          1 5YP      -0.527000
     32 O4          26.8000   -36.6970    44.4290 o          1 5YP      -0.516100
     33 S1          19.5830   -38.7000    43.4130 ss         1 5YP       0.072600
     34 S2          25.0030   -32.7210    39.0430 sy         1 5YP       1.158600
     35 H1          25.5540   -31.7220    40.9470 hn         1 5YP       0.481000
     36 H2          13.4800   -38.4280    46.3490 ha         1 5YP       0.119000
     37 H3          12.8590   -36.0130    46.4970 ha         1 5YP       0.134000
     38 H4          17.7480   -39.5890    44.7710 h4         1 5YP       0.163000
     39 H5          16.5080   -34.9700    44.5230 ha         1 5YP       0.148000
     40 H6          21.1920   -33.8830    41.8130 ha         1 5YP       0.135000
     41 H7          22.6460   -32.3190    40.6320 ha         1 5YP       0.144000
     42 H8          24.8880   -35.5940    38.9990 ha         1 5YP       0.144000
     43 H9          23.4060   -37.1880    40.1890 ha         1 5YP       0.135000
     44 H10         28.3040   -33.4510    39.5220 ha         1 5YP       0.145000
     45 H11         29.4510   -35.3790    40.5860 ha         1 5YP       0.130000
     46 H12         28.4670   -36.4410    42.5990 ha         1 5YP       0.142000
     47 H13         25.2200   -33.6450    42.4630 ha         1 5YP       0.114000
     48 H14         24.5040   -36.0260    45.1450 hc         1 5YP       0.063033
     49 H15         24.8080   -34.3510    44.6260 hc         1 5YP       0.063033
     50 H16         24.0980   -35.4930    43.4930 hc         1 5YP       0.063033
     51 H17         15.5900   -39.1020    45.2920 ha         1 5YP       0.117000
     52 H18         19.8480   -35.3160    42.0990 hn         1 5YP       0.344500
@<TRIPOS>BOND
     1     1     6 ar  
     2     1    22 ar  
     3     1    24 1   
     4     2    14 1   
     5     2    34 1   
     6     2    35 1   
     7     3     4 ar  
     8     3    22 ar  
     9     3    36 1   
    10     4    23 ar  
    11     4    37 1   
    12     5    24 2   
    13     5    33 1   
    14     5    38 1   
    15     6    23 ar  
    16     6    39 1   
    17     7     8 1   
    18     7    28 1   
    19     7    29 2   
    20     8     9 ar  
    21     8    13 ar  
    22     9    10 ar  
    23     9    40 1   
    24    10    11 ar  
    25    10    41 1   
    26    11    12 ar  
    27    11    34 1   
    28    12    13 ar  
    29    12    42 1   
    30    13    43 1   
    31    14    15 ar  
    32    14    19 ar  
    33    15    16 ar  
    34    15    44 1   
    35    16    17 ar  
    36    16    45 1   
    37    17    18 ar  
    38    17    46 1   
    39    18    19 ar  
    40    18    20 1   
    41    19    47 1   
    42    20    21 1   
    43    20    32 2   
    44    21    48 1   
    45    21    49 1   
    46    21    50 1   
    47    22    51 1   
    48    23    26 1   
    49    24    27 1   
    50    25    27 2   
    51    25    28 1   
    52    25    33 1   
    53    28    52 1   
    54    30    34 2   
    55    31    34 2   
@<TRIPOS>SUBSTRUCTURE
     1 5YP         1 TEMP              0 ****  ****    0 ROOT
