@<TRIPOS>MOLECULE
5YP
   52    55     1     0     0
SMALL
No Charge or Current Charge


@<TRIPOS>ATOM
      1 C2          15.8760   -37.3510    44.4710 ca         1 5YP      -0.093500
      2 N3          25.8700   -32.7840    40.6170 nu         1 5YP      -0.856100
      3 C4          13.9150   -37.8330    45.8680 ca         1 5YP      -0.090000
      4 C5          14.0000   -36.5570    46.4470 ca         1 5YP      -0.140000
      5 C8          16.8750   -38.9850    42.8040 cc         1 5YP      -0.295000
      6 C1          15.9460   -36.0680    45.0660 ca         1 5YP      -0.116000
      7 C10         20.5910   -37.0520    40.6760 c          1 5YP       0.609700
      8 C11         21.6320   -35.9970    40.3430 ca         1 5YP      -0.101600
      9 C12         21.6570   -34.7250    40.9710 ca         1 5YP      -0.088000
     10 C13         22.6400   -33.7770    40.6350 ca         1 5YP      -0.024000
     11 C14         23.6160   -34.0780    39.6670 ca         1 5YP      -0.288500
     12 C15         23.6020   -35.3360    39.0350 ca         1 5YP      -0.024000
     13 C16         22.6190   -36.2830    39.3720 ca         1 5YP      -0.088000
     14 C17         26.5100   -33.8000    41.3340 ca         1 5YP       0.202000
     15 C18         26.7550   -35.0740    40.7840 ca         1 5YP      -0.046000
     16 C19         27.3960   -36.0620    41.5470 ca         1 5YP      -0.114000
     17 C20         27.8020   -35.7890    42.8630 ca         1 5YP      -0.049000
     18 C21         27.5730   -34.5170    43.4350 ca         1 5YP      -0.163600
     19 C22         26.9250   -33.5300    42.6510 ca         1 5YP      -0.097000
     20 C23         28.0240   -34.2440    44.8590 c          1 5YP       0.577700
     21 C24         27.7740   -32.8700    45.4840 c3         1 5YP      -0.191100
     22 C3          14.8450   -38.2270    44.8890 ca         1 5YP      -0.112000
     23 C6          15.0150   -35.6800    46.0430 ca         1 5YP       0.158000
     24 C7          16.8590   -37.7620    43.4390 cd         1 5YP       0.368500
     25 C9          18.6210   -37.4590    42.1180 cc         1 5YP       0.535300
     26 F1          15.0990   -34.4510    46.5980 f          1 5YP      -0.185000
     27 N1          17.8660   -36.8920    43.0380 nd         1 5YP      -0.703000
     28 N2          19.6590   -36.7150    41.6270 ns         1 5YP      -0.462400
     29 O1          20.5870   -38.1420    40.1230 o          1 5YP      -0.567100
     30 O2          25.7470   -33.3490    38.1860 o          1 5YP      -0.527000
     31 O3          24.2810   -31.5240    39.2390 o          1 5YP      -0.527000
     32 O4          28.5860   -35.1110    45.5170 o          1 5YP      -0.516100
     33 S1          18.1780   -39.0900    41.6590 ss         1 5YP       0.072600
     34 S2          24.8780   -32.8600    39.2600 sy         1 5YP       1.158600
     35 H1          25.6330   -31.9290    41.1020 hn         1 5YP       0.481000
     36 H2          13.1290   -38.5190    46.1780 ha         1 5YP       0.119000
     37 H3          13.2830   -36.2480    47.2040 ha         1 5YP       0.134000
     38 H4          16.2140   -39.8300    42.9270 h4         1 5YP       0.163000
     39 H5          16.7200   -35.3630    44.7770 ha         1 5YP       0.148000
     40 H6          20.9250   -34.4480    41.7250 ha         1 5YP       0.135000
     41 H7          22.6400   -32.8090    41.1340 ha         1 5YP       0.144000
     42 H8          24.3460   -35.5900    38.2810 ha         1 5YP       0.144000
     43 H9          22.6310   -37.2480    38.8690 ha         1 5YP       0.135000
     44 H10         26.4610   -35.3070    39.7670 ha         1 5YP       0.145000
     45 H11         27.5820   -37.0440    41.1160 ha         1 5YP       0.130000
     46 H12         28.2980   -36.5720    43.4350 ha         1 5YP       0.142000
     47 H13         26.7320   -32.5420    43.0580 ha         1 5YP       0.114000
     48 H14         28.1440   -32.8020    46.5140 hc         1 5YP       0.063033
     49 H15         28.2230   -32.1000    44.8470 hc         1 5YP       0.063033
     50 H16         26.7050   -32.6390    45.4270 hc         1 5YP       0.063033
     51 H17         14.7520   -39.2210    44.4610 ha         1 5YP       0.117000
     52 H18         19.7510   -35.7930    42.0200 hn         1 5YP       0.344500
@<TRIPOS>BOND
     1     1     6 ar  
     2     1    22 ar  
     3     1    24 1   
     4     2    14 1   
     5     2    34 1   
     6     2    35 1   
     7     3     4 ar  
     8     3    22 ar  
     9     3    36 1   
    10     4    23 ar  
    11     4    37 1   
    12     5    24 2   
    13     5    33 1   
    14     5    38 1   
    15     6    23 ar  
    16     6    39 1   
    17     7     8 1   
    18     7    28 1   
    19     7    29 2   
    20     8     9 ar  
    21     8    13 ar  
    22     9    10 ar  
    23     9    40 1   
    24    10    11 ar  
    25    10    41 1   
    26    11    12 ar  
    27    11    34 1   
    28    12    13 ar  
    29    12    42 1   
    30    13    43 1   
    31    14    15 ar  
    32    14    19 ar  
    33    15    16 ar  
    34    15    44 1   
    35    16    17 ar  
    36    16    45 1   
    37    17    18 ar  
    38    17    46 1   
    39    18    19 ar  
    40    18    20 1   
    41    19    47 1   
    42    20    21 1   
    43    20    32 2   
    44    21    48 1   
    45    21    49 1   
    46    21    50 1   
    47    22    51 1   
    48    23    26 1   
    49    24    27 1   
    50    25    27 2   
    51    25    28 1   
    52    25    33 1   
    53    28    52 1   
    54    30    34 2   
    55    31    34 2   
@<TRIPOS>SUBSTRUCTURE
     1 5YP         1 TEMP              0 ****  ****    0 ROOT
