@<TRIPOS>MOLECULE
5YQ
   35    37     1     0     0
SMALL
abcg2


@<TRIPOS>ATOM
      1 C01         -2.6980     0.4520     0.0870 ca         1 5YQ      -0.073000
      2 C02         -3.9540     1.0460     0.1090 ca         1 5YQ      -0.123600
      3 C03         -5.0590     0.2130     0.0040 ca         1 5YQ      -0.117000
      4 C04         -4.8610    -1.1560    -0.1160 ca         1 5YQ       0.288900
      5 N05         -3.6640    -1.7200    -0.1360 nb         1 5YQ      -0.698000
      6 C06         -2.5970    -0.9290    -0.0370 cp         1 5YQ       0.215000
      7 C07         -4.1070     2.5610     0.2460 c          1 5YQ       0.715600
      8 O08         -5.2710     2.9970     0.2240 o          1 5YQ      -0.710000
      9 O09         -3.0540     3.2100     0.3670 o          1 5YQ      -0.710000
     10 C10         -1.2740    -1.6010    -0.0610 cp         1 5YQ       0.141000
     11 N11         -0.2030    -0.8260     0.0040 nb         1 5YQ      -0.238000
     12 C12          0.9930    -1.4230    -0.0110 ca         1 5YQ       0.374900
     13 N13          1.2050    -2.7400    -0.0760 nb         1 5YQ      -0.271000
     14 C14          0.1190    -3.4960    -0.1440 ca         1 5YQ       0.123900
     15 C15         -1.1660    -2.9880    -0.1440 ca         1 5YQ      -0.252000
     16 N16          2.0690    -0.6130     0.0330 nu         1 5YQ      -0.936100
     17 C17          3.4240    -1.1040     0.1740 c3         1 5YQ       0.297100
     18 C18          4.3830     0.0480     0.0950 ca         1 5YQ      -0.158300
     19 C19          4.9420     0.4300    -1.1200 ca         1 5YQ       0.355900
     20 N20          5.7680     1.4580    -1.2650 nb         1 5YQ      -0.672000
     21 C21          6.0740     2.1640    -0.1820 ca         1 5YQ       0.336900
     22 C22          5.5770     1.8740     1.0790 ca         1 5YQ      -0.168000
     23 C23          4.7160     0.7970     1.2170 ca         1 5YQ      -0.061000
     24 H01         -1.8060     1.0570     0.1670 ha         1 5YQ       0.157000
     25 H03         -6.0630     0.6160     0.0150 ha         1 5YQ       0.135000
     26 H04         -5.7100    -1.8250    -0.2000 h4         1 5YQ      -0.006900
     27 H14          0.2830    -4.5670    -0.2000 h4         1 5YQ       0.004100
     28 H15         -2.0310    -3.6300    -0.1970 ha         1 5YQ       0.150000
     29 HN16         1.8910     0.3620     0.2090 hn         1 5YQ       0.511000
     30 H17          3.5540    -1.6330     1.1240 h1         1 5YQ       0.052200
     31 H17A         3.6370    -1.8240    -0.6180 h1         1 5YQ       0.052200
     32 H19          4.7090    -0.1330    -2.0190 h4         1 5YQ       0.024100
     33 H21          6.7500     3.0010    -0.3230 h4         1 5YQ       0.014100
     34 H22          5.8600     2.4780     1.9300 ha         1 5YQ       0.122000
     35 H23          4.3100     0.5380     2.1870 ha         1 5YQ       0.123000
@<TRIPOS>BOND
     1     1     2 ar  
     2     1     6 ar  
     3     1    24 1   
     4     2     3 ar  
     5     2     7 1   
     6     3     4 ar  
     7     3    25 1   
     8     4     5 ar  
     9     4    26 1   
    10     5     6 ar  
    11     6    10 1   
    12     7     8 1   
    13     7     9 1   
    14    10    11 ar  
    15    10    15 ar  
    16    11    12 ar  
    17    12    13 ar  
    18    12    16 1   
    19    13    14 ar  
    20    14    15 ar  
    21    14    27 1   
    22    15    28 1   
    23    16    17 1   
    24    16    29 1   
    25    17    18 1   
    26    17    30 1   
    27    17    31 1   
    28    18    19 ar  
    29    18    23 ar  
    30    19    20 ar  
    31    19    32 1   
    32    20    21 ar  
    33    21    22 ar  
    34    21    33 1   
    35    22    23 ar  
    36    22    34 1   
    37    23    35 1   
@<TRIPOS>SUBSTRUCTURE
     1 5YQ         1 TEMP              0 ****  ****    0 ROOT
