@<TRIPOS>MOLECULE
5YQ
   35    37     1     0     0
SMALL
No Charge or Current Charge


@<TRIPOS>ATOM
      1 C01         -2.7220     0.4740     0.0650 ca         1 5YQ      -0.073000
      2 C02         -3.9800     1.1170     0.0970 ca         1 5YQ      -0.123600
      3 C03         -5.1230     0.2880     0.0740 ca         1 5YQ      -0.117000
      4 C04         -4.9650    -1.1060     0.0200 ca         1 5YQ       0.288900
      5 N05         -3.7570    -1.7090    -0.0100 nb         1 5YQ      -0.698000
      6 C06         -2.6320    -0.9460     0.0110 cp         1 5YQ       0.215000
      7 C07         -4.0960     2.6290     0.1550 c          1 5YQ       0.715600
      8 O08         -5.2130     3.1270     0.1810 o          1 5YQ      -0.710000
      9 O09         -3.0690     3.2920     0.1740 o          1 5YQ      -0.710000
     10 C10         -1.2980    -1.6660    -0.0240 cp         1 5YQ       0.141000
     11 N11         -0.1720    -0.9180    -0.0030 nb         1 5YQ      -0.238000
     12 C12          1.0110    -1.5540    -0.0340 ca         1 5YQ       0.374900
     13 N13          1.2080    -2.8840    -0.0850 nb         1 5YQ      -0.271000
     14 C14          0.1020    -3.6500    -0.1060 ca         1 5YQ       0.123900
     15 C15         -1.1800    -3.0820    -0.0770 ca         1 5YQ      -0.252000
     16 N16          2.1280    -0.7370    -0.0110 nu         1 5YQ      -0.936100
     17 C17          3.5370    -1.1510    -0.0060 c3         1 5YQ       0.297100
     18 C18          4.4310     0.0720     0.0230 ca         1 5YQ      -0.158300
     19 C19          5.1280     0.4690    -1.1350 ca         1 5YQ       0.355900
     20 N20          5.9500     1.5460    -1.1740 nb         1 5YQ      -0.672000
     21 C21          6.0980     2.2670    -0.0390 ca         1 5YQ       0.336900
     22 C22          5.4430     1.9430     1.1620 ca         1 5YQ      -0.168000
     23 C23          4.5940     0.8260     1.2010 ca         1 5YQ      -0.061000
     24 H01         -1.8150     1.0710     0.0820 ha         1 5YQ       0.157000
     25 H03         -6.1240     0.7080     0.0960 ha         1 5YQ       0.135000
     26 H04         -5.8340    -1.7620     0.0010 h4         1 5YQ      -0.006900
     27 H14          0.2470    -4.7290    -0.1470 h4         1 5YQ       0.004100
     28 H15         -2.0590    -3.7200    -0.0950 ha         1 5YQ       0.150000
     29 HN16         1.9390     0.2640     0.0420 hn         1 5YQ       0.511000
     30 H17          3.7460    -1.7740     0.8750 h1         1 5YQ       0.052200
     31 H17A         3.7580    -1.7530    -0.8990 h1         1 5YQ       0.052200
     32 H19          5.0280    -0.0930    -2.0630 h4         1 5YQ       0.024100
     33 H21          6.7620     3.1280    -0.0940 h4         1 5YQ       0.014100
     34 H22          5.5980     2.5550     2.0470 ha         1 5YQ       0.122000
     35 H23          4.0760     0.5520     2.1180 ha         1 5YQ       0.123000
@<TRIPOS>BOND
     1     1     2 ar  
     2     1     6 ar  
     3     1    24 1   
     4     2     3 ar  
     5     2     7 1   
     6     3     4 ar  
     7     3    25 1   
     8     4     5 ar  
     9     4    26 1   
    10     5     6 ar  
    11     6    10 1   
    12     7     8 1   
    13     7     9 1   
    14    10    11 ar  
    15    10    15 ar  
    16    11    12 ar  
    17    12    13 ar  
    18    12    16 1   
    19    13    14 ar  
    20    14    15 ar  
    21    14    27 1   
    22    15    28 1   
    23    16    17 1   
    24    16    29 1   
    25    17    18 1   
    26    17    30 1   
    27    17    31 1   
    28    18    19 ar  
    29    18    23 ar  
    30    19    20 ar  
    31    19    32 1   
    32    20    21 ar  
    33    21    22 ar  
    34    21    33 1   
    35    22    23 ar  
    36    22    34 1   
    37    23    35 1   
@<TRIPOS>SUBSTRUCTURE
     1 5YQ         1 TEMP              0 ****  ****    0 ROOT
