@<TRIPOS>MOLECULE
5YR
   88    91     1     0     0
SMALL
abcg2


@<TRIPOS>ATOM
      1 CAA         28.3350   -33.4680   -13.1000 ca         1 5YR      -0.074000
      2 CAB         27.0400   -33.8870   -12.8390 ca         1 5YR      -0.139000
      3 CAC         26.6860   -35.2070   -13.1060 ca         1 5YR       0.131100
      4 CAD         27.6320   -36.0750   -13.6330 ca         1 5YR      -0.198000
      5 CAE         28.9360   -35.6510   -13.8940 ca         1 5YR      -0.027300
      6 CAF         29.3100   -34.3270   -13.6190 ca         1 5YR      -0.091300
      7 CAG         29.9110   -36.6560   -14.4620 c6         1 5YR      -0.026100
      8 CAH         31.1190   -36.0100   -15.1290 c6         1 5YR       0.102300
      9 CAI         31.7000   -34.9620   -14.1830 c6         1 5YR      -0.029700
     10 CAJ         30.7040   -33.8120   -13.9410 c6         1 5YR      -0.009400
     11 CAK         33.0300   -34.3700   -14.6160 c5         1 5YR      -0.069700
     12 CAL         33.6400   -33.4520   -13.5370 c5         1 5YR      -0.042000
     13 CAM         32.6630   -32.3040   -13.2720 c6         1 5YR      -0.060400
     14 CAN         31.2620   -32.8190   -12.9040 c6         1 5YR      -0.068400
     15 CAO         34.1830   -35.2900   -15.0330 c5         1 5YR      -0.064400
     16 CAP         35.4380   -34.3870   -14.8910 c5         1 5YR      -0.110400
     17 CAQ         34.9380   -33.0650   -14.2590 c5         1 5YR       0.168300
     18 CAS         33.9690   -34.1890   -12.2300 c3         1 5YR      -0.074100
     19 CAW         30.4680   -36.5000   -19.2410 c3         1 5YR      -0.065400
     20 CAX         30.7990   -37.6630   -20.1760 c3         1 5YR      -0.074400
     21 CAY         30.2950   -37.4470   -21.6010 c3         1 5YR      -0.075400
     22 CAZ         30.7680   -38.5200   -22.5780 c3         1 5YR      -0.076400
     23 CBA         30.1800   -38.3610   -23.9800 c3         1 5YR      -0.071400
     24 CBB         30.7510   -39.3370   -25.0130 c3         1 5YR      -0.074400
     25 CBC         32.1880   -39.0150   -25.4240 c3         1 5YR      -0.068400
     26 CBD         32.7380   -40.0080   -26.4370 c3         1 5YR      -0.151400
     27 CBE         34.1550   -39.6920   -26.8890 c          1 5YR       0.599100
     28 CBH         34.1300   -41.8770   -28.0400 c3         1 5YR       0.091300
     29 CBI         36.1640   -40.4510   -28.0610 c3         1 5YR       0.095000
     30 CBJ         37.1110   -41.3980   -27.3200 c3         1 5YR      -0.096400
     31 CBK         37.0900   -41.2160   -25.8050 c3         1 5YR      -0.087100
     32 NBF         34.7650   -40.6180   -27.6690 n          1 5YR      -0.416800
     33 OAR         25.4000   -35.5940   -12.8410 oh         1 5YR      -0.540100
     34 OAT         35.8800   -32.4470   -13.3790 oh         1 5YR      -0.659000
     35 OBG         34.7120   -38.6390   -26.5590 o          1 5YR      -0.611100
     36 SAU         30.7000   -35.2910   -16.7720 ss         1 5YR      -0.459000
     37 H1          28.5880   -32.4360   -12.8960 ha         1 5YR       0.114000
     38 H2          26.3030   -33.2040   -12.4360 ha         1 5YR       0.128000
     39 H3          27.3490   -37.0990   -13.8550 ha         1 5YR       0.108000
     40 H4          30.2780   -37.2940   -13.6480 hc         1 5YR       0.053200
     41 H5          29.3920   -37.3190   -15.1560 hc         1 5YR       0.053200
     42 H6          31.8740   -36.7690   -15.3320 h1         1 5YR       0.063700
     43 H7          31.8440   -35.4920   -13.2350 hc         1 5YR       0.058700
     44 H8          30.6320   -33.2590   -14.8880 hc         1 5YR       0.066700
     45 H10         32.8200   -33.7230   -15.4760 hc         1 5YR       0.060700
     46 H11         33.0340   -31.6520   -12.4770 hc         1 5YR       0.045700
     47 H12         32.5880   -31.6940   -14.1790 hc         1 5YR       0.045700
     48 H13         31.2790   -33.3020   -11.9230 hc         1 5YR       0.043700
     49 H14         30.5930   -31.9630   -12.8120 hc         1 5YR       0.043700
     50 H16         34.2500   -36.1570   -14.3720 hc         1 5YR       0.043700
     51 H17         34.0530   -35.6660   -16.0480 hc         1 5YR       0.043700
     52 H18         36.1800   -34.8370   -14.2290 hc         1 5YR       0.048200
     53 H19         35.9260   -34.2040   -15.8490 hc         1 5YR       0.048200
     54 H20         34.6800   -32.3550   -15.0520 h1         1 5YR       0.031700
     55 H21         34.4760   -33.5110   -11.5430 hc         1 5YR       0.037367
     56 H22         33.0710   -34.5530   -11.7350 hc         1 5YR       0.037367
     57 H23         34.6240   -35.0450   -12.3960 hc         1 5YR       0.037367
     58 H24         30.2700   -37.5820   -17.3820 h1         1 5YR       0.052700
     59 H25         31.9290   -37.0980   -17.7610 h1         1 5YR       0.052700
     60 H26         29.3950   -36.2900   -19.2740 hc         1 5YR       0.053200
     61 H27         30.9760   -35.5990   -19.5990 hc         1 5YR       0.053200
     62 H28         31.8850   -37.8070   -20.1920 hc         1 5YR       0.037200
     63 H29         30.3700   -38.5880   -19.7760 hc         1 5YR       0.037200
     64 H30         29.2000   -37.4130   -21.5950 hc         1 5YR       0.039700
     65 H31         30.6310   -36.4670   -21.9590 hc         1 5YR       0.039700
     66 H32         31.8610   -38.4930   -22.6250 hc         1 5YR       0.038200
     67 H33         30.5030   -39.5110   -22.1900 hc         1 5YR       0.038200
     68 H34         29.0950   -38.4910   -23.9200 hc         1 5YR       0.039700
     69 H35         30.3470   -37.3350   -24.3280 hc         1 5YR       0.039700
     70 H36         30.7020   -40.3570   -24.6140 hc         1 5YR       0.035200
     71 H37         30.1200   -39.3260   -25.9070 hc         1 5YR       0.035200
     72 H38         32.2220   -38.0060   -25.8440 hc         1 5YR       0.056200
     73 H39         32.8390   -39.0030   -24.5470 hc         1 5YR       0.056200
     74 H40         32.7160   -41.0190   -26.0190 hc         1 5YR       0.054200
     75 H41         32.0920   -40.0400   -27.3210 hc         1 5YR       0.054200
     76 H42         34.6660   -42.2950   -28.8900 h1         1 5YR       0.037367
     77 H43         34.1550   -42.6070   -27.2260 h1         1 5YR       0.037367
     78 H44         33.0950   -41.7230   -28.3380 h1         1 5YR       0.037367
     79 H45         36.4360   -39.4180   -27.8620 h1         1 5YR       0.060700
     80 H46         36.2370   -40.6230   -29.1380 h1         1 5YR       0.060700
     81 H47         36.8630   -42.4340   -27.5720 hc         1 5YR       0.039700
     82 H48         38.1190   -41.2210   -27.7060 hc         1 5YR       0.039700
     83 H49         37.7760   -41.9130   -25.3200 hc         1 5YR       0.036367
     84 H50         37.3840   -40.2010   -25.5270 hc         1 5YR       0.036367
     85 H51         36.0910   -41.3970   -25.4020 hc         1 5YR       0.036367
     86 H52         25.2860   -36.5260   -13.0690 ho         1 5YR       0.460000
     87 H53         36.6150   -32.1170   -13.9100 ho         1 5YR       0.440000
     88 CAV         30.8840   -36.7850   -17.8030 c3         1 5YR       0.071600
@<TRIPOS>BOND
     1     1     2 ar  
     2     1     6 ar  
     3     1    37 1   
     4     2     3 ar  
     5     2    38 1   
     6     3     4 ar  
     7     3    33 1   
     8     4     5 ar  
     9     4    39 1   
    10     5     6 ar  
    11     5     7 1   
    12     6    10 1   
    13     7     8 1   
    14     7    40 1   
    15     7    41 1   
    16     8     9 1   
    17     8    36 1   
    18     8    42 1   
    19     9    10 1   
    20     9    11 1   
    21     9    43 1   
    22    10    14 1   
    23    10    44 1   
    24    11    12 1   
    25    11    15 1   
    26    11    45 1   
    27    12    13 1   
    28    12    17 1   
    29    12    18 1   
    30    13    14 1   
    31    13    46 1   
    32    13    47 1   
    33    14    48 1   
    34    14    49 1   
    35    15    16 1   
    36    15    50 1   
    37    15    51 1   
    38    16    17 1   
    39    16    52 1   
    40    16    53 1   
    41    17    34 1   
    42    17    54 1   
    43    18    55 1   
    44    18    56 1   
    45    18    57 1   
    46    19    20 1   
    47    19    60 1   
    48    19    61 1   
    49    19    88 1   
    50    20    21 1   
    51    20    62 1   
    52    20    63 1   
    53    21    22 1   
    54    21    64 1   
    55    21    65 1   
    56    22    23 1   
    57    22    66 1   
    58    22    67 1   
    59    23    24 1   
    60    23    68 1   
    61    23    69 1   
    62    24    25 1   
    63    24    70 1   
    64    24    71 1   
    65    25    26 1   
    66    25    72 1   
    67    25    73 1   
    68    26    27 1   
    69    26    74 1   
    70    26    75 1   
    71    27    32 1   
    72    27    35 2   
    73    28    32 1   
    74    28    76 1   
    75    28    77 1   
    76    28    78 1   
    77    29    30 1   
    78    29    32 1   
    79    29    79 1   
    80    29    80 1   
    81    30    31 1   
    82    30    81 1   
    83    30    82 1   
    84    31    83 1   
    85    31    84 1   
    86    31    85 1   
    87    33    86 1   
    88    34    87 1   
    89    36    88 1   
    90    58    88 1   
    91    59    88 1   
@<TRIPOS>SUBSTRUCTURE
     1 5YR         1 TEMP              0 ****  ****    0 ROOT
