@<TRIPOS>MOLECULE
5YR
   88    91     1     0     0
SMALL
No Charge or Current Charge


@<TRIPOS>ATOM
      1 CAA         28.0770   -34.2460   -12.5730 ca         1 5YR      -0.074000
      2 CAB         26.9450   -35.0210   -12.2720 ca         1 5YR      -0.139000
      3 CAC         26.8860   -36.3610   -12.6660 ca         1 5YR       0.131100
      4 CAD         27.9530   -36.9290   -13.3730 ca         1 5YR      -0.198000
      5 CAE         29.0930   -36.1620   -13.6870 ca         1 5YR      -0.027300
      6 CAF         29.1760   -34.8070   -13.2650 ca         1 5YR      -0.091300
      7 CAG         30.2260   -36.8470   -14.4640 c6         1 5YR      -0.026100
      8 CAH         31.2530   -35.8730   -15.0820 c6         1 5YR       0.102300
      9 CAI         31.6460   -34.8190   -14.0160 c6         1 5YR      -0.029700
     10 CAJ         30.4120   -33.9400   -13.6190 c6         1 5YR      -0.009400
     11 CAK         32.8210   -33.9010   -14.4550 c5         1 5YR      -0.069700
     12 CAL         33.2690   -32.9240   -13.3290 c5         1 5YR      -0.042000
     13 CAM         32.0530   -32.0380   -12.9310 c6         1 5YR      -0.060400
     14 CAN         30.8140   -32.8950   -12.5200 c6         1 5YR      -0.068400
     15 CAO         34.1640   -34.5530   -14.8830 c5         1 5YR      -0.064400
     16 CAP         35.1840   -33.3620   -14.8070 c5         1 5YR      -0.110400
     17 CAQ         34.3930   -32.1670   -14.1700 c5         1 5YR       0.168300
     18 CAS         33.8460   -33.5880   -12.0270 c3         1 5YR      -0.074100
     19 CAW         30.7920   -36.0860   -19.3040 c3         1 5YR      -0.065400
     20 CAX         31.2040   -37.1570   -20.3380 c3         1 5YR      -0.074400
     21 CAY         30.8230   -36.7770   -21.7860 c3         1 5YR      -0.075400
     22 CAZ         31.2340   -37.8490   -22.8190 c3         1 5YR      -0.076400
     23 CBA         30.8540   -37.4650   -24.2680 c3         1 5YR      -0.071400
     24 CBB         31.1700   -38.5530   -25.3230 c3         1 5YR      -0.074400
     25 CBC         32.6770   -38.8420   -25.5150 c3         1 5YR      -0.068400
     26 CBD         32.9510   -39.8720   -26.6390 c3         1 5YR      -0.151400
     27 CBE         34.4360   -40.2200   -26.8880 c          1 5YR       0.599100
     28 CBH         33.6950   -41.8200   -28.7060 c3         1 5YR       0.091300
     29 CBI         36.1510   -41.5840   -28.1520 c3         1 5YR       0.095000
     30 CBJ         36.5250   -42.9610   -27.5580 c3         1 5YR      -0.096400
     31 CBK         36.4370   -43.0250   -26.0190 c3         1 5YR      -0.087100
     32 NBF         34.7470   -41.1840   -27.8800 n          1 5YR      -0.416800
     33 OAR         25.7850   -37.1080   -12.3700 oh         1 5YR      -0.540100
     34 OAT         35.2740   -31.2740   -13.4430 oh         1 5YR      -0.659000
     35 OBG         35.3240   -39.6790   -26.2400 o          1 5YR      -0.611100
     36 SAU         30.6540   -35.1420   -16.6840 ss         1 5YR      -0.459000
     37 H1          28.0790   -33.2040   -12.2680 ha         1 5YR       0.114000
     38 H2          26.1110   -34.5760   -11.7340 ha         1 5YR       0.128000
     39 H3          27.9030   -37.9690   -13.6860 ha         1 5YR       0.108000
     40 H4          30.7520   -37.5220   -13.7760 hc         1 5YR       0.053200
     41 H5          29.8090   -37.4900   -15.2510 hc         1 5YR       0.053200
     42 H6          32.1510   -36.4550   -15.3320 h1         1 5YR       0.063700
     43 H7          31.9700   -35.3750   -13.1270 hc         1 5YR       0.058700
     44 H8          30.1230   -33.3550   -14.5030 hc         1 5YR       0.066700
     45 H10         32.4220   -33.3330   -15.3060 hc         1 5YR       0.060700
     46 H11         32.3270   -31.3540   -12.1170 hc         1 5YR       0.045700
     47 H12         31.7730   -31.3990   -13.7800 hc         1 5YR       0.045700
     48 H13         30.9990   -33.4070   -11.5670 hc         1 5YR       0.043700
     49 H14         29.9880   -32.1990   -12.3330 hc         1 5YR       0.043700
     50 H16         34.4520   -35.3730   -14.2150 hc         1 5YR       0.043700
     51 H17         34.1060   -34.9770   -15.8930 hc         1 5YR       0.043700
     52 H18         36.0560   -33.6420   -14.2040 hc         1 5YR       0.048200
     53 H19         35.5660   -33.0940   -15.7990 hc         1 5YR       0.048200
     54 H20         33.9070   -31.5970   -14.9750 h1         1 5YR       0.031700
     55 H21         34.1360   -32.8220   -11.2980 hc         1 5YR       0.037367
     56 H22         33.1230   -34.2430   -11.5300 hc         1 5YR       0.037367
     57 H23         34.7400   -34.1920   -12.2150 hc         1 5YR       0.037367
     58 H24         30.6850   -37.4100   -17.5850 h1         1 5YR       0.052700
     59 H25         32.2620   -36.6050   -17.7910 h1         1 5YR       0.052700
     60 H26         29.7070   -35.9290   -19.3560 hc         1 5YR       0.053200
     61 H27         31.2690   -35.1320   -19.5600 hc         1 5YR       0.053200
     62 H28         32.2880   -37.3140   -20.2800 hc         1 5YR       0.037200
     63 H29         30.7270   -38.1100   -20.0770 hc         1 5YR       0.037200
     64 H30         29.7380   -36.6190   -21.8430 hc         1 5YR       0.039700
     65 H31         31.3000   -35.8240   -22.0460 hc         1 5YR       0.039700
     66 H32         32.3180   -38.0040   -22.7510 hc         1 5YR       0.038200
     67 H33         30.7550   -38.8020   -22.5600 hc         1 5YR       0.038200
     68 H34         29.7790   -37.2530   -24.3060 hc         1 5YR       0.039700
     69 H35         31.3660   -36.5350   -24.5450 hc         1 5YR       0.039700
     70 H36         30.6530   -39.4810   -25.0500 hc         1 5YR       0.035200
     71 H37         30.7490   -38.2320   -26.2840 hc         1 5YR       0.035200
     72 H38         33.1980   -37.9050   -25.7480 hc         1 5YR       0.056200
     73 H39         33.1010   -39.2230   -24.5780 hc         1 5YR       0.056200
     74 H40         32.4090   -40.8070   -26.4630 hc         1 5YR       0.054200
     75 H41         32.5160   -39.5470   -27.5910 hc         1 5YR       0.054200
     76 H42         34.1440   -42.5080   -29.4340 h1         1 5YR       0.037367
     77 H43         33.0110   -42.3900   -28.0650 h1         1 5YR       0.037367
     78 H44         33.1320   -41.0530   -29.2530 h1         1 5YR       0.037367
     79 H45         36.8460   -40.8260   -27.7680 h1         1 5YR       0.060700
     80 H46         36.2980   -41.6190   -29.2400 h1         1 5YR       0.060700
     81 H47         35.8770   -43.7330   -27.9890 hc         1 5YR       0.039700
     82 H48         37.5500   -43.2050   -27.8630 hc         1 5YR       0.039700
     83 H49         36.7600   -44.0090   -25.6600 hc         1 5YR       0.036367
     84 H50         37.0800   -42.2640   -25.5620 hc         1 5YR       0.036367
     85 H51         35.4080   -42.8600   -25.6790 hc         1 5YR       0.036367
     86 H52         25.9210   -38.0120   -12.7250 ho         1 5YR       0.460000
     87 H53         35.9270   -30.9330   -14.0920 ho         1 5YR       0.440000
     88 CAV         31.1750   -36.4680   -17.8620 c3         1 5YR       0.071600
@<TRIPOS>BOND
     1     1     2 ar  
     2     1     6 ar  
     3     1    37 1   
     4     2     3 ar  
     5     2    38 1   
     6     3     4 ar  
     7     3    33 1   
     8     4     5 ar  
     9     4    39 1   
    10     5     6 ar  
    11     5     7 1   
    12     6    10 1   
    13     7     8 1   
    14     7    40 1   
    15     7    41 1   
    16     8     9 1   
    17     8    36 1   
    18     8    42 1   
    19     9    10 1   
    20     9    11 1   
    21     9    43 1   
    22    10    14 1   
    23    10    44 1   
    24    11    12 1   
    25    11    15 1   
    26    11    45 1   
    27    12    13 1   
    28    12    17 1   
    29    12    18 1   
    30    13    14 1   
    31    13    46 1   
    32    13    47 1   
    33    14    48 1   
    34    14    49 1   
    35    15    16 1   
    36    15    50 1   
    37    15    51 1   
    38    16    17 1   
    39    16    52 1   
    40    16    53 1   
    41    17    34 1   
    42    17    54 1   
    43    18    55 1   
    44    18    56 1   
    45    18    57 1   
    46    19    20 1   
    47    19    60 1   
    48    19    61 1   
    49    19    88 1   
    50    20    21 1   
    51    20    62 1   
    52    20    63 1   
    53    21    22 1   
    54    21    64 1   
    55    21    65 1   
    56    22    23 1   
    57    22    66 1   
    58    22    67 1   
    59    23    24 1   
    60    23    68 1   
    61    23    69 1   
    62    24    25 1   
    63    24    70 1   
    64    24    71 1   
    65    25    26 1   
    66    25    72 1   
    67    25    73 1   
    68    26    27 1   
    69    26    74 1   
    70    26    75 1   
    71    27    32 1   
    72    27    35 2   
    73    28    32 1   
    74    28    76 1   
    75    28    77 1   
    76    28    78 1   
    77    29    30 1   
    78    29    32 1   
    79    29    79 1   
    80    29    80 1   
    81    30    31 1   
    82    30    81 1   
    83    30    82 1   
    84    31    83 1   
    85    31    84 1   
    86    31    85 1   
    87    33    86 1   
    88    34    87 1   
    89    36    88 1   
    90    58    88 1   
    91    59    88 1   
@<TRIPOS>SUBSTRUCTURE
     1 5YR         1 TEMP              0 ****  ****    0 ROOT
