@<TRIPOS>MOLECULE
5YS
   50    52     1     0     0
SMALL
abcg2


@<TRIPOS>ATOM
      1 C2          81.5360    40.0160    18.4710 c          1 5YS       0.654100
      2 C4          80.5630    41.2220    16.5690 c3         1 5YS       0.164000
      3 C6          79.8810    40.8560    15.2500 c3         1 5YS      -0.099100
      4 C7          81.6500    42.2630    16.3470 ca         1 5YS      -0.062300
      5 C8          82.9520    41.8960    16.0260 ca         1 5YS      -0.141000
      6 C11         82.2700    44.5950    16.1760 ca         1 5YS       0.139100
      7 C16         82.5710    37.7450    18.1060 c6         1 5YS       0.109000
      8 C17         84.0560    37.3980    18.1940 c6         1 5YS      -0.086900
      9 C18         84.5080    37.2520    19.6540 c6         1 5YS      -0.021400
     10 C19         84.1350    38.5210    20.4360 c6         1 5YS      -0.086900
     11 C21         85.9750    36.9260    19.7610 ca         1 5YS      -0.037300
     12 C23         88.2980    37.4540    19.4330 ca         1 5YS       0.333400
     13 O1          81.2960    40.9740    19.2190 o          1 5YS      -0.641100
     14 N3          81.0570    40.0010    17.1890 ns         1 5YS      -0.507900
     15 C9          83.9080    42.8800    15.7790 ca         1 5YS      -0.076000
     16 C10         83.5780    44.2230    15.8500 ca         1 5YS      -0.140000
     17 O12         82.0260    45.9340    16.2380 os         1 5YS      -0.351100
     18 C13         80.7120    46.3660    16.5840 c3         1 5YS       0.148900
     19 C14         81.3110    43.6140    16.4240 ca         1 5YS      -0.177000
     20 N15         82.2730    38.9400    18.8870 n          1 5YS      -0.435800
     21 C20         82.6490    38.8310    20.2930 c6         1 5YS       0.109000
     22 C22         86.9610    37.8050    19.3090 ca         1 5YS      -0.161000
     23 N24         88.7150    36.3010    19.9690 nb         1 5YS      -0.663000
     24 C25         87.7710    35.4590    20.4010 ca         1 5YS       0.333400
     25 C26         86.4100    35.7260    20.3180 ca         1 5YS      -0.161000
     26 H1          79.8200    41.6560    17.2390 h1         1 5YS       0.082700
     27 H2          79.0590    40.1610    15.4240 hc         1 5YS       0.044700
     28 H3          79.4880    41.7530    14.7720 hc         1 5YS       0.044700
     29 H4          80.5970    40.3910    14.5670 hc         1 5YS       0.044700
     30 H5          83.2270    40.8500    15.9760 ha         1 5YS       0.105000
     31 H6          82.3050    37.8770    17.0620 h1         1 5YS       0.050450
     32 H7          81.9740    36.9090    18.4880 h1         1 5YS       0.050450
     33 H8          84.2380    36.4690    17.6500 hc         1 5YS       0.054450
     34 H9          84.6350    38.1870    17.7060 hc         1 5YS       0.054450
     35 H10         83.9510    36.4170    20.0910 hc         1 5YS       0.052700
     36 H11         84.3790    38.3950    21.4930 hc         1 5YS       0.054450
     37 H12         84.7140    39.3690    20.0610 hc         1 5YS       0.054450
     38 H13         89.0700    38.1310    19.0850 h4         1 5YS       0.019100
     39 H14         81.3620    39.2830    16.5560 hn         1 5YS       0.298500
     40 H15         84.9230    42.5940    15.5310 ha         1 5YS       0.112000
     41 H16         84.3140    44.9940    15.6640 ha         1 5YS       0.127000
     42 H17         80.7450    47.4530    16.5830 h1         1 5YS       0.042033
     43 H18         79.9780    46.0210    15.8510 h1         1 5YS       0.042033
     44 H19         80.4280    46.0080    17.5770 h1         1 5YS       0.042033
     45 H20         80.2970    43.8850    16.6850 ha         1 5YS       0.117000
     46 H21         82.3980    39.7640    20.7850 h1         1 5YS       0.050450
     47 H22         82.0600    38.0290    20.7580 h1         1 5YS       0.050450
     48 H23         86.7000    38.7570    18.8650 ha         1 5YS       0.122000
     49 H24         88.1170    34.5270    20.8350 h4         1 5YS       0.019100
     50 H25         85.6950    35.0020    20.6870 ha         1 5YS       0.122000
@<TRIPOS>BOND
     1     1    13 2   
     2     1    14 1   
     3     1    20 1   
     4     2     3 1   
     5     2     4 1   
     6     2    14 1   
     7     2    26 1   
     8     3    27 1   
     9     3    28 1   
    10     3    29 1   
    11     4     5 ar  
    12     4    19 ar  
    13     5    15 ar  
    14     5    30 1   
    15     6    16 ar  
    16     6    17 1   
    17     6    19 ar  
    18     7     8 1   
    19     7    20 1   
    20     7    31 1   
    21     7    32 1   
    22     8     9 1   
    23     8    33 1   
    24     8    34 1   
    25     9    10 1   
    26     9    11 1   
    27     9    35 1   
    28    10    21 1   
    29    10    36 1   
    30    10    37 1   
    31    11    22 ar  
    32    11    25 ar  
    33    12    22 ar  
    34    12    23 ar  
    35    12    38 1   
    36    14    39 1   
    37    15    16 ar  
    38    15    40 1   
    39    16    41 1   
    40    17    18 1   
    41    18    42 1   
    42    18    43 1   
    43    18    44 1   
    44    19    45 1   
    45    20    21 1   
    46    21    46 1   
    47    21    47 1   
    48    22    48 1   
    49    23    24 ar  
    50    24    25 ar  
    51    24    49 1   
    52    25    50 1   
@<TRIPOS>SUBSTRUCTURE
     1 5YS         1 TEMP              0 ****  ****    0 ROOT
