@<TRIPOS>MOLECULE
5YS
   50    52     1     0     0
SMALL
No Charge or Current Charge


@<TRIPOS>ATOM
      1 C2          81.2160    39.4850    18.3050 c          1 5YS       0.654100
      2 C4          80.6690    41.4210    16.7960 c3         1 5YS       0.164000
      3 C6          79.2910    41.0530    16.2080 c3         1 5YS      -0.099100
      4 C7          81.4950    42.2820    15.8400 ca         1 5YS      -0.062300
      5 C8          81.8420    41.8060    14.5590 ca         1 5YS      -0.141000
      6 C11         82.7040    44.3600    15.3670 ca         1 5YS       0.139100
      7 C16         83.1460    37.9670    17.5420 c6         1 5YS       0.109000
      8 C17         84.5180    38.0500    18.2520 c6         1 5YS      -0.086900
      9 C18         84.5310    37.1870    19.5430 c6         1 5YS      -0.021400
     10 C19         83.3420    37.5850    20.4610 c6         1 5YS      -0.086900
     11 C21         85.8760    37.2730    20.2770 ca         1 5YS      -0.037300
     12 C23         87.6020    38.5130    21.4550 ca         1 5YS       0.333400
     13 O1          80.3620    39.7890    19.1220 o          1 5YS      -0.641100
     14 N3          81.4220    40.2270    17.1690 ns         1 5YS      -0.507900
     15 C9          82.6080    42.5980    13.6880 ca         1 5YS      -0.076000
     16 C10         83.0360    43.8720    14.0930 ca         1 5YS      -0.140000
     17 O12         83.1550    45.6180    15.7120 os         1 5YS      -0.351100
     18 C13         82.8720    46.2120    16.9920 c3         1 5YS       0.148900
     19 C14         81.9330    43.5610    16.2410 ca         1 5YS      -0.177000
     20 N15         82.0500    38.3610    18.4720 n          1 5YS      -0.435800
     21 C20         81.9990    37.5190    19.6950 c6         1 5YS       0.109000
     22 C22         86.3640    38.4890    20.7910 ca         1 5YS      -0.161000
     23 N24         88.3660    37.4100    21.6310 nb         1 5YS      -0.663000
     24 C25         87.8990    36.2390    21.1380 ca         1 5YS       0.333400
     25 C26         86.6720    36.1280    20.4620 ca         1 5YS      -0.161000
     26 H1          80.4900    42.0030    17.7120 h1         1 5YS       0.082700
     27 H2          78.6860    40.5130    16.9460 hc         1 5YS       0.044700
     28 H3          78.7450    41.9590    15.9200 hc         1 5YS       0.044700
     29 H4          79.3950    40.4170    15.3220 hc         1 5YS       0.044700
     30 H5          81.5200    40.8190    14.2350 ha         1 5YS       0.105000
     31 H6          83.1690    38.5870    16.6370 h1         1 5YS       0.050450
     32 H7          82.9720    36.9330    17.2110 h1         1 5YS       0.050450
     33 H8          85.3090    37.7140    17.5680 hc         1 5YS       0.054450
     34 H9          84.7360    39.1000    18.4920 hc         1 5YS       0.054450
     35 H10         84.3740    36.1420    19.2400 hc         1 5YS       0.052700
     36 H11         83.3030    36.9190    21.3340 hc         1 5YS       0.054450
     37 H12         83.4850    38.6020    20.8480 hc         1 5YS       0.054450
     38 H13         87.9960    39.4450    21.8590 h4         1 5YS       0.019100
     39 H14         82.1600    39.9210    16.5530 hn         1 5YS       0.298500
     40 H15         82.8710    42.2230    12.7010 ha         1 5YS       0.112000
     41 H16         83.6290    44.4840    13.4190 ha         1 5YS       0.127000
     42 H17         83.3220    47.2110    17.0550 h1         1 5YS       0.042033
     43 H18         81.7900    46.3170    17.1430 h1         1 5YS       0.042033
     44 H19         83.2840    45.6010    17.8050 h1         1 5YS       0.042033
     45 H20         81.6680    43.9200    17.2310 ha         1 5YS       0.117000
     46 H21         81.1850    37.8360    20.3610 h1         1 5YS       0.050450
     47 H22         81.7930    36.4790    19.4040 h1         1 5YS       0.050450
     48 H23         85.7990    39.4110    20.6830 ha         1 5YS       0.122000
     49 H24         88.5290    35.3640    21.2910 h4         1 5YS       0.019100
     50 H25         86.3540    35.1580    20.0900 ha         1 5YS       0.122000
@<TRIPOS>BOND
     1     1    13 2   
     2     1    14 1   
     3     1    20 1   
     4     2     3 1   
     5     2     4 1   
     6     2    14 1   
     7     2    26 1   
     8     3    27 1   
     9     3    28 1   
    10     3    29 1   
    11     4     5 ar  
    12     4    19 ar  
    13     5    15 ar  
    14     5    30 1   
    15     6    16 ar  
    16     6    17 1   
    17     6    19 ar  
    18     7     8 1   
    19     7    20 1   
    20     7    31 1   
    21     7    32 1   
    22     8     9 1   
    23     8    33 1   
    24     8    34 1   
    25     9    10 1   
    26     9    11 1   
    27     9    35 1   
    28    10    21 1   
    29    10    36 1   
    30    10    37 1   
    31    11    22 ar  
    32    11    25 ar  
    33    12    22 ar  
    34    12    23 ar  
    35    12    38 1   
    36    14    39 1   
    37    15    16 ar  
    38    15    40 1   
    39    16    41 1   
    40    17    18 1   
    41    18    42 1   
    42    18    43 1   
    43    18    44 1   
    44    19    45 1   
    45    20    21 1   
    46    21    46 1   
    47    21    47 1   
    48    22    48 1   
    49    23    24 ar  
    50    24    25 ar  
    51    24    49 1   
    52    25    50 1   
@<TRIPOS>SUBSTRUCTURE
     1 5YS         1 TEMP              0 ****  ****    0 ROOT
