@<TRIPOS>MOLECULE
5YT
   22    22     1     0     0
SMALL
No Charge or Current Charge


@<TRIPOS>ATOM
      1 C10         14.8590    39.4980    20.8880 c3         1 5YT      -0.042200
      2 C12         16.7770    39.3590    19.2300 c2         1 5YT      -0.349000
      3 C02         13.8030    35.3550    19.0470 cc         1 5YT       0.660300
      4 N03         14.8990    35.0020    19.6450 nd         1 5YT      -0.664000
      5 C04         15.2390    35.9490    20.6340 cd         1 5YT       0.283500
      6 C05         16.4840    35.8310    21.5340 c          1 5YT       0.629500
      7 O06         16.7280    36.6640    22.3990 o          1 5YT      -0.703500
      8 O07         17.2270    34.8650    21.3780 o          1 5YT      -0.703500
      9 C08         14.3170    37.0080    20.7010 cc         1 5YT      -0.184300
     10 C09         14.2750    38.2440    21.5770 c3         1 5YT       0.003900
     11 C11         16.3140    39.3440    20.4900 c2         1 5YT      -0.179200
     12 S13         13.0300    36.8110    19.5370 ss         1 5YT      -0.280400
     13 H1          14.7530    40.3540    21.5660 hc         1 5YT       0.027700
     14 H2          14.2480    39.7310    20.0060 hc         1 5YT       0.027700
     15 H3          16.1110    39.4850    18.3750 ha         1 5YT       0.149000
     16 H4          17.8400    39.2430    19.0130 ha         1 5YT       0.149000
     17 H5          12.6670    35.0140    17.4300 hn         1 5YT       0.448500
     18 H6          13.9700    33.9070    17.6810 hn         1 5YT       0.448500
     19 H8          13.2300    38.4590    21.8320 hc         1 5YT       0.068200
     20 H9          14.7660    38.0870    22.5410 hc         1 5YT       0.068200
     21 H10         16.9990    39.2160    21.3310 ha         1 5YT       0.182000
     22 N01         13.3240    34.5840    18.0690 nv         1 5YT      -1.040900
@<TRIPOS>BOND
     1     1    10 1   
     2     1    11 1   
     3     1    13 1   
     4     1    14 1   
     5     2    11 2   
     6     2    15 1   
     7     2    16 1   
     8     3     4 2   
     9     3    12 1   
    10     3    22 1   
    11     4     5 1   
    12     5     6 1   
    13     5     9 2   
    14     6     7 1   
    15     6     8 1   
    16     9    10 1   
    17     9    12 1   
    18    10    19 1   
    19    10    20 1   
    20    11    21 1   
    21    17    22 1   
    22    18    22 1   
@<TRIPOS>SUBSTRUCTURE
     1 5YT         1 TEMP              0 ****  ****    0 ROOT
