@<TRIPOS>MOLECULE
5YT
   22    22     1     0     0
SMALL
abcg2


@<TRIPOS>ATOM
      1 C10         14.8480    39.5210    20.8600 c3         1 5YT      -0.042200
      2 C12         16.5230    39.4770    18.9960 c2         1 5YT      -0.349000
      3 C02         13.9740    35.3960    19.0390 cc         1 5YT       0.660300
      4 N03         14.9110    34.9870    19.8230 nd         1 5YT      -0.664000
      5 C04         15.1850    35.8960    20.8250 cd         1 5YT       0.283500
      6 C05         16.2930    35.5600    21.8190 c          1 5YT       0.629500
      7 O06         16.4180    36.3080    22.8100 o          1 5YT      -0.703500
      8 O07         16.9810    34.5620    21.5490 o          1 5YT      -0.703500
      9 C08         14.4280    37.0300    20.8060 cc         1 5YT      -0.184300
     10 C09         14.4290    38.2660    21.6440 c3         1 5YT       0.003900
     11 C11         16.2220    39.3920    20.2870 c2         1 5YT      -0.179200
     12 S13         13.3230    36.9550    19.4570 ss         1 5YT      -0.280400
     13 H1          14.8160    40.3710    21.5490 hc         1 5YT       0.027700
     14 H2          14.1270    39.7360    20.0670 hc         1 5YT       0.027700
     15 H3          15.7620    39.6600    18.2460 ha         1 5YT       0.149000
     16 H4          17.5390    39.3690    18.6410 ha         1 5YT       0.149000
     17 H5          13.0310    35.1920    17.2500 hn         1 5YT       0.448500
     18 H6          14.0380    33.9210    17.6850 hn         1 5YT       0.448500
     19 H8          13.4350    38.4340    22.0680 hc         1 5YT       0.068200
     20 H9          15.1100    38.1030    22.4750 hc         1 5YT       0.068200
     21 H10         17.0170    39.1990    21.0030 ha         1 5YT       0.182000
     22 N01         13.4520    34.6760    18.0060 nv         1 5YT      -1.040900
@<TRIPOS>BOND
     1     1    10 1   
     2     1    11 1   
     3     1    13 1   
     4     1    14 1   
     5     2    11 2   
     6     2    15 1   
     7     2    16 1   
     8     3     4 2   
     9     3    12 1   
    10     3    22 1   
    11     4     5 1   
    12     5     6 1   
    13     5     9 2   
    14     6     7 1   
    15     6     8 1   
    16     9    10 1   
    17     9    12 1   
    18    10    19 1   
    19    10    20 1   
    20    11    21 1   
    21    17    22 1   
    22    18    22 1   
@<TRIPOS>SUBSTRUCTURE
     1 5YT         1 TEMP              0 ****  ****    0 ROOT
