@<TRIPOS>MOLECULE
5YU
   52    55     1     0     0
SMALL
No Charge or Current Charge


@<TRIPOS>ATOM
      1 C1         -19.3180    -9.9400   -26.9820 c3         1 5YU      -0.086100
      2 C2         -19.4910   -10.2220   -25.4640 c3         1 5YU      -0.078300
      3 C3         -19.9530    -8.9020   -24.7780 c3         1 5YU      -0.086100
      4 C4         -20.6010   -11.2890   -25.2650 c3         1 5YU      -0.086100
      5 C5         -18.1720   -10.7350   -24.8780 cc         1 5YU       0.422700
      6 C6         -16.3670   -10.8310   -23.5510 cd         1 5YU       0.367500
      7 C7         -16.1680   -11.9500   -24.3370 cc         1 5YU      -0.315500
      8 C8         -14.9290   -12.7120   -24.3170 ca         1 5YU       0.260500
      9 C9         -13.6800   -12.0700   -24.3990 ca         1 5YU      -0.267000
     10 C10        -12.5280   -12.8720   -24.3690 ca         1 5YU       0.150900
     11 C11        -13.8520   -14.7220   -24.2090 ca         1 5YU       0.389900
     12 C12        -15.5720   -10.4230   -22.3660 ca         1 5YU      -0.150500
     13 N3         -13.9440   -16.0700   -24.1150 nv         1 5YU      -1.062900
     14 O1         -12.4500    -6.8300   -19.2260 o          1 5YU      -0.532000
     15 O2         -13.4320    -5.1760   -20.9520 o          1 5YU      -0.532000
     16 C13        -14.9470   -11.3980   -21.5520 ca         1 5YU      -0.065000
     17 C20        -11.4260    -8.4960   -21.6400 cc         1 5YU      -0.136000
     18 C21        -15.4770    -9.0640   -21.9680 ca         1 5YU       0.172000
     19 N1         -17.5460   -10.1620   -23.8530 nd         1 5YU      -0.637000
     20 N2         -12.6130   -14.2130   -24.2720 nb         1 5YU      -0.243000
     21 C14        -14.2170   -11.0290   -20.4120 ca         1 5YU      -0.122000
     22 C15        -14.0950    -9.6780   -20.0580 ca         1 5YU      -0.059000
     23 C16        -14.7150    -8.6860   -20.8350 ca         1 5YU       0.195000
     24 C17        -12.3060    -7.4540   -21.8550 cd         1 5YU      -0.345500
     25 C18        -12.5550    -7.2460   -23.2440 cd         1 5YU      -0.051000
     26 C19        -11.8890    -8.1130   -24.0710 cc         1 5YU      -0.252000
     27 F1         -16.0290    -8.0830   -22.7260 f          1 5YU      -0.167000
     28 N4         -15.0140   -14.0540   -24.2280 nb         1 5YU      -0.275000
     29 N5         -14.5330    -7.3340   -20.5120 nu         1 5YU      -0.865100
     30 S1         -17.4150   -12.1760   -25.5200 ss         1 5YU       0.081600
     31 S2         -13.0620    -6.5260   -20.5220 sy         1 5YU       1.179600
     32 S3         -10.9110    -9.2440   -23.1460 ss         1 5YU       0.262000
     33 H1         -19.0690   -10.8540   -27.5350 hc         1 5YU       0.043033
     34 H2         -20.2420    -9.5350   -27.4140 hc         1 5YU       0.043033
     35 H3         -18.5170    -9.2120   -27.1540 hc         1 5YU       0.043033
     36 H4         -20.1170    -9.0520   -23.7030 hc         1 5YU       0.043033
     37 H5         -19.2030    -8.1110   -24.9000 hc         1 5YU       0.043033
     38 H6         -20.8940    -8.5410   -25.2110 hc         1 5YU       0.043033
     39 H7         -20.7300   -11.5220   -24.2010 hc         1 5YU       0.043033
     40 H8         -21.5640   -10.9310   -25.6510 hc         1 5YU       0.043033
     41 H9         -20.3590   -12.2210   -25.7880 hc         1 5YU       0.043033
     42 H10        -13.6040   -10.9900   -24.4810 ha         1 5YU       0.141000
     43 H11        -11.5310   -12.4400   -24.4250 h4         1 5YU       0.019100
     44 H12        -14.8470   -16.5060   -24.2860 hn         1 5YU       0.498000
     45 H13        -13.1200   -16.6310   -24.3200 hn         1 5YU       0.498000
     46 H14        -15.0490   -12.4560   -21.7740 ha         1 5YU       0.129000
     47 H16        -13.7450   -11.7940   -19.7990 ha         1 5YU       0.129000
     48 H17        -13.5170    -9.3990   -19.1810 ha         1 5YU       0.148000
     49 H18        -13.2240    -6.4740   -23.6190 ha         1 5YU       0.151000
     50 H19        -11.9020    -8.1780   -25.1510 h4         1 5YU       0.157000
     51 H20        -15.1030    -6.7010   -21.0580 hn         1 5YU       0.500000
     52 H15        -11.0540    -8.8950   -20.7040 h4         1 5YU       0.172000
@<TRIPOS>BOND
     1     1     2 1   
     2     1    33 1   
     3     1    34 1   
     4     1    35 1   
     5     2     3 1   
     6     2     4 1   
     7     2     5 1   
     8     3    36 1   
     9     3    37 1   
    10     3    38 1   
    11     4    39 1   
    12     4    40 1   
    13     4    41 1   
    14     5    19 2   
    15     5    30 1   
    16     6     7 2   
    17     6    12 1   
    18     6    19 1   
    19     7     8 1   
    20     7    30 1   
    21     8     9 ar  
    22     8    28 ar  
    23     9    10 ar  
    24     9    42 1   
    25    10    20 ar  
    26    10    43 1   
    27    11    13 1   
    28    11    20 ar  
    29    11    28 ar  
    30    12    16 ar  
    31    12    18 ar  
    32    13    44 1   
    33    13    45 1   
    34    14    31 2   
    35    15    31 2   
    36    16    21 ar  
    37    16    46 1   
    38    17    24 2   
    39    17    32 1   
    40    17    52 1   
    41    18    23 ar  
    42    18    27 1   
    43    21    22 ar  
    44    21    47 1   
    45    22    23 ar  
    46    22    48 1   
    47    23    29 1   
    48    24    25 1   
    49    24    31 1   
    50    25    26 2   
    51    25    49 1   
    52    26    32 1   
    53    26    50 1   
    54    29    31 1   
    55    29    51 1   
@<TRIPOS>SUBSTRUCTURE
     1 5YU         1 TEMP              0 ****  ****    0 ROOT
