@<TRIPOS>MOLECULE
5YU
   52    55     1     0     0
SMALL
abcg2


@<TRIPOS>ATOM
      1 C1         -19.8410   -11.4730   -26.5060 c3         1 5YU      -0.086100
      2 C2         -19.4860   -10.4910   -25.3900 c3         1 5YU      -0.078300
      3 C3         -19.3530    -9.0780   -25.9730 c3         1 5YU      -0.086100
      4 C4         -20.5860   -10.5110   -24.3250 c3         1 5YU      -0.086100
      5 C5         -18.1720   -10.8520   -24.7430 cc         1 5YU       0.422700
      6 C6         -16.5230   -10.7960   -23.2800 cd         1 5YU       0.367500
      7 C7         -15.9720   -11.7040   -24.1470 cc         1 5YU      -0.315500
      8 C8         -14.6930   -12.4040   -24.1680 ca         1 5YU       0.260500
      9 C9         -13.6270   -12.1110   -23.3220 ca         1 5YU      -0.267000
     10 C10        -12.4810   -12.8640   -23.5120 ca         1 5YU       0.150900
     11 C11        -13.4450   -14.0160   -25.1930 ca         1 5YU       0.389900
     12 C12        -15.9300   -10.3450   -22.0070 ca         1 5YU      -0.150500
     13 N3         -13.3680   -14.9900   -26.1170 nv         1 5YU      -1.062900
     14 O1         -12.1480    -7.7770   -19.5310 o          1 5YU      -0.532000
     15 O2         -12.5280    -5.6170   -20.7690 o          1 5YU      -0.532000
     16 C13        -15.8540   -11.1880   -20.9020 ca         1 5YU      -0.065000
     17 C20        -11.5010    -9.0140   -22.1340 cc         1 5YU      -0.136000
     18 C21        -15.4310    -9.0610   -21.8800 ca         1 5YU       0.172000
     19 N1         -17.7480   -10.3240   -23.6340 nd         1 5YU      -0.637000
     20 N2         -12.3660   -13.8110   -24.4260 nb         1 5YU      -0.243000
     21 C14        -15.2990   -10.7430   -19.7120 ca         1 5YU      -0.122000
     22 C15        -14.8140    -9.4480   -19.6080 ca         1 5YU      -0.059000
     23 C16        -14.8680    -8.5900   -20.6990 ca         1 5YU       0.195000
     24 C17        -12.1540    -7.8170   -22.1240 cd         1 5YU      -0.345500
     25 C18        -12.3490    -7.2560   -23.4160 cd         1 5YU      -0.051000
     26 C19        -11.8250    -8.0540   -24.3830 cc         1 5YU      -0.252000
     27 F1         -15.4860    -8.2410   -22.9330 f          1 5YU      -0.167000
     28 N4         -14.5950   -13.3480   -25.1000 nb         1 5YU      -0.275000
     29 N5         -14.3650    -7.2740   -20.6150 nu         1 5YU      -0.865100
     30 S1         -17.0780   -11.9830   -25.4390 ss         1 5YU       0.081600
     31 S2         -12.7120    -7.0500   -20.6500 sy         1 5YU       1.179600
     32 S3         -11.1050    -9.4650   -23.7260 ss         1 5YU       0.262000
     33 H1         -19.9450   -12.4930   -26.1320 hc         1 5YU       0.043033
     34 H2         -20.7950   -11.1870   -26.9510 hc         1 5YU       0.043033
     35 H3         -19.1010   -11.4730   -27.3090 hc         1 5YU       0.043033
     36 H4         -19.1210    -8.3510   -25.1950 hc         1 5YU       0.043033
     37 H5         -18.5690    -9.0310   -26.7300 hc         1 5YU       0.043033
     38 H6         -20.2930    -8.7830   -26.4430 hc         1 5YU       0.043033
     39 H7         -20.3770    -9.8040   -23.5240 hc         1 5YU       0.043033
     40 H8         -21.5400   -10.2370   -24.7790 hc         1 5YU       0.043033
     41 H9         -20.6940   -11.5030   -23.8860 hc         1 5YU       0.043033
     42 H10        -13.6600   -11.3380   -22.5730 ha         1 5YU       0.141000
     43 H11        -11.6090   -12.6840   -22.8920 h4         1 5YU       0.019100
     44 H12        -14.0850   -15.0600   -26.8190 hn         1 5YU       0.498000
     45 H13        -12.4710   -15.3890   -26.3310 hn         1 5YU       0.498000
     46 H14        -16.2380   -12.1970   -20.9830 ha         1 5YU       0.129000
     47 H16        -15.2550   -11.4030   -18.8570 ha         1 5YU       0.129000
     48 H17        -14.4010    -9.0910   -18.6750 ha         1 5YU       0.148000
     49 H18        -12.8420    -6.3160   -23.6120 ha         1 5YU       0.151000
     50 H19        -11.8190    -7.8830   -25.4480 h4         1 5YU       0.157000
     51 H20        -14.8450    -6.5810   -21.1810 hn         1 5YU       0.500000
     52 H15        -11.2350    -9.6400   -21.2960 h4         1 5YU       0.172000
@<TRIPOS>BOND
     1     1     2 1   
     2     1    33 1   
     3     1    34 1   
     4     1    35 1   
     5     2     3 1   
     6     2     4 1   
     7     2     5 1   
     8     3    36 1   
     9     3    37 1   
    10     3    38 1   
    11     4    39 1   
    12     4    40 1   
    13     4    41 1   
    14     5    19 2   
    15     5    30 1   
    16     6     7 2   
    17     6    12 1   
    18     6    19 1   
    19     7     8 1   
    20     7    30 1   
    21     8     9 ar  
    22     8    28 ar  
    23     9    10 ar  
    24     9    42 1   
    25    10    20 ar  
    26    10    43 1   
    27    11    13 1   
    28    11    20 ar  
    29    11    28 ar  
    30    12    16 ar  
    31    12    18 ar  
    32    13    44 1   
    33    13    45 1   
    34    14    31 2   
    35    15    31 2   
    36    16    21 ar  
    37    16    46 1   
    38    17    24 2   
    39    17    32 1   
    40    17    52 1   
    41    18    23 ar  
    42    18    27 1   
    43    21    22 ar  
    44    21    47 1   
    45    22    23 ar  
    46    22    48 1   
    47    23    29 1   
    48    24    25 1   
    49    24    31 1   
    50    25    26 2   
    51    25    49 1   
    52    26    32 1   
    53    26    50 1   
    54    29    31 1   
    55    29    51 1   
@<TRIPOS>SUBSTRUCTURE
     1 5YU         1 TEMP              0 ****  ****    0 ROOT
