@<TRIPOS>MOLECULE
5YW
   63    66     1     0     0
SMALL
abcg2


@<TRIPOS>ATOM
      1 C1          17.5100    24.8680     2.3940 c3         1 5YW      -0.086100
      2 C2          18.6920    25.2140     3.2870 c3         1 5YW      -0.076400
      3 C3          18.8490    24.2940     4.4790 c3         1 5YW       0.165600
      4 O1          17.7000    24.4250     5.3030 os         1 5YW      -0.353100
      5 C4          17.6130    23.6950     6.4310 ca         1 5YW       0.131100
      6 C5          18.5700    22.7830     6.8540 ca         1 5YW      -0.173000
      7 C6          18.4020    22.0560     8.0280 ca         1 5YW      -0.091000
      8 C7          17.2590    22.2410     8.7960 ca         1 5YW      -0.057000
      9 N1          16.9730    21.5510     9.9830 ns         1 5YW      -0.131000
     10 C8          17.7100    20.6110    10.6140 c          1 5YW       0.650300
     11 O2          18.8090    20.2140    10.2660 o          1 5YW      -0.568100
     12 C9          17.0570    20.0750    11.7900 cg         1 5YW      -0.187200
     13 C10         16.5440    19.5740    12.7600 ch         1 5YW      -0.030000
     14 C11         15.9340    18.9810    13.8990 ca         1 5YW       0.002000
     15 C12         16.5690    17.9280    14.5650 ca         1 5YW      -0.076500
     16 C13         15.9670    17.3460    15.6670 ca         1 5YW      -0.114500
     17 C14         14.7350    17.8060    16.1150 ca         1 5YW      -0.092000
     18 C15         14.1010    18.8540    15.4570 ca         1 5YW      -0.114500
     19 C16         14.6940    19.4410    14.3520 ca         1 5YW      -0.076500
     20 C17         16.3060    23.1720     8.3690 ca         1 5YW      -0.119000
     21 C18         16.4640    23.9010     7.2090 ca         1 5YW      -0.105300
     22 C19         15.4260    24.8980     6.7430 c3         1 5YW       0.157300
     23 N2          14.4080    25.1860     7.7200 ns         1 5YW      -0.505900
     24 C20         14.6150    26.0490     8.7330 c          1 5YW       0.605700
     25 O3          15.6560    26.6730     8.8650 o          1 5YW      -0.583100
     26 C21         13.4980    26.1970     9.7160 ca         1 5YW      -0.136600
     27 C22         12.1610    25.9800     9.3910 ca         1 5YW      -0.091500
     28 C23         11.1700    26.1420    10.3450 ca         1 5YW      -0.077000
     29 C24         11.4920    26.5190    11.6470 cp         1 5YW      -0.134500
     30 C25         10.4360    26.6770    12.6710 cp         1 5YW       0.189500
     31 N3           9.1820    26.4320    12.3030 nb         1 5YW      -0.177500
     32 C26          8.2400    26.5720    13.2240 ca         1 5YW       0.116400
     33 C27          8.5300    26.9560    14.5220 ca         1 5YW      -0.222000
     34 C28          9.8650    27.1890    14.8040 ca         1 5YW       0.116400
     35 N4          10.8130    27.0520    13.8890 nb         1 5YW      -0.177500
     36 C29         12.8310    26.7450    11.9680 ca         1 5YW      -0.077000
     37 C30         13.8180    26.5950    11.0120 ca         1 5YW      -0.091500
     38 H1          17.4820    25.5180     1.5200 hc         1 5YW       0.035700
     39 H2          17.5760    23.8390     2.0370 hc         1 5YW       0.035700
     40 H3          16.5590    24.9800     2.9150 hc         1 5YW       0.035700
     41 H4          19.6200    25.1480     2.7130 hc         1 5YW       0.050700
     42 H5          18.6210    26.2490     3.6330 hc         1 5YW       0.050700
     43 H6          18.9570    23.2560     4.1420 h1         1 5YW       0.035200
     44 H7          19.7500    24.5560     5.0450 h1         1 5YW       0.035200
     45 H8          19.4700    22.6140     6.2790 ha         1 5YW       0.120000
     46 H9          19.1680    21.3580     8.3190 ha         1 5YW       0.148000
     47 H10         16.0860    21.7770    10.4100 hn         1 5YW       0.158000
     48 H13         17.5280    17.5720    14.2130 ha         1 5YW       0.123000
     49 H14         16.4610    16.5300    16.1790 ha         1 5YW       0.118000
     50 H15         14.2680    17.3490    16.9780 ha         1 5YW       0.116000
     51 H16         13.1420    19.2130    15.8060 ha         1 5YW       0.118000
     52 H17         14.2020    20.2550    13.8360 ha         1 5YW       0.123000
     53 H18         15.4160    23.3200     8.9700 ha         1 5YW       0.110000
     54 H19         15.9100    25.8300     6.4510 h1         1 5YW       0.071200
     55 H20         14.9270    24.5200     5.8480 h1         1 5YW       0.071200
     56 H21         13.5870    24.6020     7.7260 hn         1 5YW       0.314500
     57 H22         11.8670    25.7070     8.3850 ha         1 5YW       0.126500
     58 H23         10.1370    25.9780    10.0730 ha         1 5YW       0.138500
     59 H24          7.2210    26.3700    12.9150 h4         1 5YW       0.026600
     60 H25          7.7590    27.0690    15.2710 ha         1 5YW       0.137000
     61 H26         10.1830    27.4940    15.7940 h4         1 5YW       0.026600
     62 H27         13.1010    27.0400    12.9720 ha         1 5YW       0.138500
     63 H28         14.8500    26.7770    11.2800 ha         1 5YW       0.126500
@<TRIPOS>BOND
     1     1     2 1   
     2     1    38 1   
     3     1    39 1   
     4     1    40 1   
     5     2     3 1   
     6     2    41 1   
     7     2    42 1   
     8     3     4 1   
     9     3    43 1   
    10     3    44 1   
    11     4     5 1   
    12     5     6 ar  
    13     5    21 ar  
    14     6     7 ar  
    15     6    45 1   
    16     7     8 ar  
    17     7    46 1   
    18     8     9 1   
    19     8    20 ar  
    20     9    10 1   
    21     9    47 1   
    22    10    11 2   
    23    10    12 1   
    24    12    13 3   
    25    13    14 1   
    26    14    15 ar  
    27    14    19 ar  
    28    15    16 ar  
    29    15    48 1   
    30    16    17 ar  
    31    16    49 1   
    32    17    18 ar  
    33    17    50 1   
    34    18    19 ar  
    35    18    51 1   
    36    19    52 1   
    37    20    21 ar  
    38    20    53 1   
    39    21    22 1   
    40    22    23 1   
    41    22    54 1   
    42    22    55 1   
    43    23    24 1   
    44    23    56 1   
    45    24    25 2   
    46    24    26 1   
    47    26    27 ar  
    48    26    37 ar  
    49    27    28 ar  
    50    27    57 1   
    51    28    29 ar  
    52    28    58 1   
    53    29    30 1   
    54    29    36 ar  
    55    30    31 ar  
    56    30    35 ar  
    57    31    32 ar  
    58    32    33 ar  
    59    32    59 1   
    60    33    34 ar  
    61    33    60 1   
    62    34    35 ar  
    63    34    61 1   
    64    36    37 ar  
    65    36    62 1   
    66    37    63 1   
@<TRIPOS>SUBSTRUCTURE
     1 5YW         1 TEMP              0 ****  ****    0 ROOT
