@<TRIPOS>MOLECULE
5YW
   63    66     1     0     0
SMALL
No Charge or Current Charge


@<TRIPOS>ATOM
      1 C1          17.6270    25.1820     2.6570 c3         1 5YW      -0.086100
      2 C2          18.4920    25.8240     3.7630 c3         1 5YW      -0.076400
      3 C3          18.8110    24.8770     4.9380 c3         1 5YW       0.165600
      4 O1          17.5720    24.5350     5.5850 os         1 5YW      -0.353100
      5 C4          17.5100    23.6960     6.6820 ca         1 5YW       0.131100
      6 C5          18.6710    23.1160     7.2390 ca         1 5YW      -0.173000
      7 C6          18.5790    22.2560     8.3470 ca         1 5YW      -0.091000
      8 C7          17.3220    21.9570     8.9130 ca         1 5YW      -0.057000
      9 N1          17.1500    21.0920    10.0310 ns         1 5YW      -0.131000
     10 C8          18.0470    20.3680    10.8030 c          1 5YW       0.650300
     11 O2          19.2610    20.3410    10.6400 o          1 5YW      -0.568100
     12 C9          17.4260    19.6060    11.8720 cg         1 5YW      -0.187200
     13 C10         16.8410    19.0000    12.7560 ch         1 5YW      -0.030000
     14 C11         16.1440    18.3020    13.7840 ca         1 5YW       0.002000
     15 C12         16.6800    17.1170    14.3240 ca         1 5YW      -0.076500
     16 C13         15.9910    16.4280    15.3390 ca         1 5YW      -0.114500
     17 C14         14.7650    16.9220    15.8170 ca         1 5YW      -0.092000
     18 C15         14.2280    18.1050    15.2800 ca         1 5YW      -0.114500
     19 C16         14.9160    18.7940    14.2660 ca         1 5YW      -0.076500
     20 C17         16.1690    22.5350     8.3540 ca         1 5YW      -0.119000
     21 C18         16.2490    23.4090     7.2490 ca         1 5YW      -0.105300
     22 C19         14.9670    24.0150     6.6720 c3         1 5YW       0.157300
     23 N2          14.0960    24.5720     7.7110 ns         1 5YW      -0.505900
     24 C20         14.2500    25.8190     8.2760 c          1 5YW       0.605700
     25 O3          15.1350    26.5790     7.9060 o          1 5YW      -0.583100
     26 C21         13.2710    26.1950     9.3730 ca         1 5YW      -0.136600
     27 C22         12.2550    25.3150     9.8170 ca         1 5YW      -0.091500
     28 C23         11.3670    25.6980    10.8370 ca         1 5YW      -0.077000
     29 C24         11.4510    26.9730    11.4610 cp         1 5YW      -0.134500
     30 C25         10.4960    27.3810    12.5570 cp         1 5YW       0.189500
     31 N3           9.5480    26.4920    12.9350 nb         1 5YW      -0.177500
     32 C26          8.6950    26.8540    13.9130 ca         1 5YW       0.116400
     33 C27          8.7820    28.1140    14.5250 ca         1 5YW      -0.222000
     34 C28          9.7920    28.9800    14.0770 ca         1 5YW       0.116400
     35 N4          10.6430    28.6130    13.0990 nb         1 5YW      -0.177500
     36 C29         12.4760    27.8440    11.0040 ca         1 5YW      -0.077000
     37 C30         13.3640    27.4630     9.9850 ca         1 5YW      -0.091500
     38 H1          17.4680    25.8930     1.8370 hc         1 5YW       0.035700
     39 H2          18.1190    24.2920     2.2470 hc         1 5YW       0.035700
     40 H3          16.6460    24.8880     3.0470 hc         1 5YW       0.035700
     41 H4          19.4380    26.1610     3.3210 hc         1 5YW       0.050700
     42 H5          17.9880    26.7190     4.1470 hc         1 5YW       0.050700
     43 H6          19.3150    23.9780     4.5590 h1         1 5YW       0.035200
     44 H7          19.4840    25.3870     5.6400 h1         1 5YW       0.035200
     45 H8          19.6550    23.3190     6.8270 ha         1 5YW       0.120000
     46 H9          19.4960    21.8320     8.7460 ha         1 5YW       0.148000
     47 H10         16.1870    20.9850    10.3210 hn         1 5YW       0.158000
     48 H13         17.6290    16.7290    13.9590 ha         1 5YW       0.123000
     49 H14         16.4080    15.5130    15.7530 ha         1 5YW       0.118000
     50 H15         14.2330    16.3890    16.6020 ha         1 5YW       0.116000
     51 H16         13.2790    18.4870    15.6500 ha         1 5YW       0.118000
     52 H17         14.4930    19.7090    13.8550 ha         1 5YW       0.123000
     53 H18         15.1970    22.3030     8.7840 ha         1 5YW       0.110000
     54 H19         15.1960    24.8060     5.9460 h1         1 5YW       0.071200
     55 H20         14.4150    23.2320     6.1360 h1         1 5YW       0.071200
     56 H21         13.3370    24.0010     8.0580 hn         1 5YW       0.314500
     57 H22         12.1360    24.3260     9.3840 ha         1 5YW       0.126500
     58 H23         10.6040    24.9850    11.1430 ha         1 5YW       0.138500
     59 H24          7.9380    26.1280    14.2060 h4         1 5YW       0.026600
     60 H25          8.0950    28.4080    15.3140 ha         1 5YW       0.137000
     61 H26          9.9230    29.9730    14.5030 h4         1 5YW       0.026600
     62 H27         12.5940    28.8340    11.4410 ha         1 5YW       0.138500
     63 H28         14.1330    28.1660     9.6700 ha         1 5YW       0.126500
@<TRIPOS>BOND
     1     1     2 1   
     2     1    38 1   
     3     1    39 1   
     4     1    40 1   
     5     2     3 1   
     6     2    41 1   
     7     2    42 1   
     8     3     4 1   
     9     3    43 1   
    10     3    44 1   
    11     4     5 1   
    12     5     6 ar  
    13     5    21 ar  
    14     6     7 ar  
    15     6    45 1   
    16     7     8 ar  
    17     7    46 1   
    18     8     9 1   
    19     8    20 ar  
    20     9    10 1   
    21     9    47 1   
    22    10    11 2   
    23    10    12 1   
    24    12    13 3   
    25    13    14 1   
    26    14    15 ar  
    27    14    19 ar  
    28    15    16 ar  
    29    15    48 1   
    30    16    17 ar  
    31    16    49 1   
    32    17    18 ar  
    33    17    50 1   
    34    18    19 ar  
    35    18    51 1   
    36    19    52 1   
    37    20    21 ar  
    38    20    53 1   
    39    21    22 1   
    40    22    23 1   
    41    22    54 1   
    42    22    55 1   
    43    23    24 1   
    44    23    56 1   
    45    24    25 2   
    46    24    26 1   
    47    26    27 ar  
    48    26    37 ar  
    49    27    28 ar  
    50    27    57 1   
    51    28    29 ar  
    52    28    58 1   
    53    29    30 1   
    54    29    36 ar  
    55    30    31 ar  
    56    30    35 ar  
    57    31    32 ar  
    58    32    33 ar  
    59    32    59 1   
    60    33    34 ar  
    61    33    60 1   
    62    34    35 ar  
    63    34    61 1   
    64    36    37 ar  
    65    36    62 1   
    66    37    63 1   
@<TRIPOS>SUBSTRUCTURE
     1 5YW         1 TEMP              0 ****  ****    0 ROOT
