@<TRIPOS>MOLECULE
5YX
   65    68     1     0     0
SMALL
bcc


@<TRIPOS>ATOM
      1 C2         -19.3690   -10.2810   -26.0050 c3         1 5YX      -0.080300
      2 N3         -14.8570   -12.5240   -23.1570 nb         1 5YX      -0.717000
      3 C7         -16.7180   -11.0490   -23.2240 cc         1 5YX      -0.234900
      4 C8         -15.6680   -11.7160   -22.4680 ca         1 5YX       0.546800
      5 C10        -14.5050   -12.2840   -20.4970 ca         1 5YX       0.444200
      6 C9         -15.5230   -11.5630   -21.0940 ca         1 5YX      -0.351600
      7 C4         -19.3800   -11.5410   -26.8660 c3         1 5YX      -0.086433
      8 C23        -11.2860   -10.3900   -22.0210 ca         1 5YX      -0.098000
      9 C24        -11.5150    -9.2700   -22.8060 ca         1 5YX      -0.158000
     10 C26        -16.0080    -8.1630   -21.8780 ca         1 5YX       0.133900
     11 C25        -12.1000    -8.1580   -22.2380 ca         1 5YX       0.212900
     12 C14        -10.7340   -14.1480   -25.8100 c3         1 5YX      -0.225300
     13 C17        -17.7100    -7.9530   -19.7330 ca         1 5YX      -0.141000
     14 C22        -11.6510   -10.3640   -20.6880 ca         1 5YX       0.105900
     15 C21        -12.2660    -9.2680   -20.1170 ca         1 5YX      -0.049000
     16 C19        -15.7210    -7.2370   -20.8850 ca         1 5YX       0.065600
     17 C18        -16.5850    -7.1450   -19.8000 ca         1 5YX      -0.062000
     18 C5         -18.4230   -10.4220   -24.8400 cc         1 5YX       0.432700
     19 C6         -17.3990    -9.8900   -22.9630 cd         1 5YX       0.427800
     20 N1         -18.3510    -9.5590   -23.8730 nd         1 5YX      -0.637000
     21 C1         -18.9030    -9.0860   -26.8480 c3         1 5YX      -0.086433
     22 C11        -13.9070   -13.1580   -22.4910 ca         1 5YX       0.665300
     23 C13        -13.3200   -14.3200   -24.6740 c3         1 5YX      -0.175600
     24 C15        -17.1330    -8.9670   -21.8440 ca         1 5YX      -0.154500
     25 C16        -17.9910    -8.8460   -20.7560 ca         1 5YX      -0.074000
     26 C20        -12.4890    -8.1480   -20.9080 ca         1 5YX      -0.318500
     27 C3         -20.7770   -10.0140   -25.4620 c3         1 5YX      -0.086433
     28 F2         -12.3060    -7.0710   -22.9850 f          1 5YX      -0.126900
     29 N2         -13.6980   -13.0800   -21.1800 nb         1 5YX      -0.699000
     30 N4         -14.6070    -6.3780   -21.0000 nu         1 5YX      -0.704500
     31 O1         -12.5980   -15.7160   -26.8060 o          1 5YX      -0.584800
     32 O2         -11.5800   -16.3260   -24.5920 o          1 5YX      -0.584800
     33 S1         -17.2950   -11.7190   -24.7010 ss         1 5YX      -0.068300
     34 S2         -12.0630   -15.2950   -25.5120 s6         1 5YX       0.994000
     35 S3         -13.2110    -6.6940   -20.1800 sy         1 5YX       1.321200
     36 H1         -14.3480   -12.2250   -19.4260 h4         1 5YX       0.033100
     37 H2         -16.1790   -10.9460   -20.5010 ha         1 5YX       0.164000
     38 H3         -19.7030   -12.4170   -26.3000 hc         1 5YX       0.044144
     39 H4         -20.0770   -11.4090   -27.6950 hc         1 5YX       0.044144
     40 H5         -18.4000   -11.7500   -27.3010 hc         1 5YX       0.044144
     41 H6         -10.8210   -11.2700   -22.4450 ha         1 5YX       0.154000
     42 H7         -11.2350    -9.2620   -23.8510 ha         1 5YX       0.159000
     43 H8         -10.3470   -13.7660   -24.8680 h1         1 5YX       0.102700
     44 H9          -9.9530   -14.7010   -26.3300 h1         1 5YX       0.102700
     45 H10        -11.0910   -13.3320   -26.4330 h1         1 5YX       0.102700
     46 H11        -18.3790    -7.8720   -18.8870 ha         1 5YX       0.149000
     47 H12        -12.5520    -9.2840   -19.0740 ha         1 5YX       0.181000
     48 H13        -16.3780    -6.4210   -19.0240 ha         1 5YX       0.163000
     49 H14        -12.8080   -14.9520   -22.6810 hc         1 5YX       0.076700
     50 H15        -11.9650   -13.5140   -23.1930 hc         1 5YX       0.076700
     51 H16        -18.8980    -8.1670   -26.2610 hc         1 5YX       0.044144
     52 H17        -17.8980    -9.2460   -27.2410 hc         1 5YX       0.044144
     53 H18        -19.5800    -8.9470   -27.6920 hc         1 5YX       0.044144
     54 H19        -13.4710   -13.4190   -25.2690 h1         1 5YX       0.111700
     55 H20        -14.2320   -14.9200   -24.7320 h1         1 5YX       0.111700
     56 H21        -18.8770    -9.4660   -20.7110 ha         1 5YX       0.149000
     57 H22        -21.1340   -10.8490   -24.8570 hc         1 5YX       0.044144
     58 H23        -20.8030    -9.1130   -24.8510 hc         1 5YX       0.044144
     59 H24        -21.4720    -9.8790   -26.2930 hc         1 5YX       0.044144
     60 H25        -14.4670    -5.9200   -21.8950 hn         1 5YX       0.459800
     61 F3         -15.1770    -8.2630   -22.9200 f          1 5YX      -0.134900
     62 C12        -12.9330   -14.0230   -23.2380 c3         1 5YX      -0.089700
     63 F1         -11.4010   -11.4320   -19.9250 f          1 5YX      -0.124900
     64 O3         -13.5870    -7.0600   -18.8300 o          1 5YX      -0.593300
     65 O4         -12.3410    -5.5670   -20.4330 o          1 5YX      -0.593300
@<TRIPOS>BOND
     1     1     7 1   
     2     1    18 1   
     3     1    21 1   
     4     1    27 1   
     5     2     4 ar  
     6     2    22 ar  
     7     3     4 1   
     8     3    19 2   
     9     3    33 1   
    10     4     6 ar  
    11     5     6 ar  
    12     5    29 ar  
    13     5    36 1   
    14     6    37 1   
    15     7    38 1   
    16     7    39 1   
    17     7    40 1   
    18     8     9 ar  
    19     8    14 ar  
    20     8    41 1   
    21     9    11 ar  
    22     9    42 1   
    23    10    16 ar  
    24    10    24 ar  
    25    10    61 1   
    26    11    26 ar  
    27    11    28 1   
    28    12    34 1   
    29    12    43 1   
    30    12    44 1   
    31    12    45 1   
    32    13    17 ar  
    33    13    25 ar  
    34    13    46 1   
    35    14    15 ar  
    36    14    63 1   
    37    15    26 ar  
    38    15    47 1   
    39    16    17 ar  
    40    16    30 1   
    41    17    48 1   
    42    18    20 2   
    43    18    33 1   
    44    19    20 1   
    45    19    24 1   
    46    21    51 1   
    47    21    52 1   
    48    21    53 1   
    49    22    29 ar  
    50    22    62 1   
    51    23    34 1   
    52    23    54 1   
    53    23    55 1   
    54    23    62 1   
    55    24    25 ar  
    56    25    56 1   
    57    26    35 1   
    58    27    57 1   
    59    27    58 1   
    60    27    59 1   
    61    30    35 1   
    62    30    60 1   
    63    31    34 2   
    64    32    34 2   
    65    35    64 2   
    66    35    65 2   
    67    49    62 1   
    68    50    62 1   
@<TRIPOS>SUBSTRUCTURE
     1 5YX         1 TEMP              0 ****  ****    0 ROOT
