@<TRIPOS>MOLECULE
5YX
   65    68     1     0     0
SMALL
No Charge or Current Charge


@<TRIPOS>ATOM
      1 C2         -20.1240   -10.4740   -25.6910 c3         1 5YX      -0.080300
      2 N3         -14.3480   -11.7240   -24.3980 nb         1 5YX      -0.191000
      3 C7         -16.5740   -10.8650   -24.0900 cc         1 5YX      -0.314500
      4 C8         -15.3680   -11.4750   -23.5510 ca         1 5YX       0.218500
      5 C10        -14.0950   -12.4310   -21.7460 ca         1 5YX       0.115900
      6 C9         -15.2800   -11.8250   -22.1910 ca         1 5YX      -0.203000
      7 C4         -20.7780   -11.8790   -25.5810 c3         1 5YX      -0.086433
      8 C23        -12.7220   -11.2570   -18.0880 ca         1 5YX      -0.080000
      9 C24        -12.0970   -11.0900   -19.3370 ca         1 5YX      -0.140000
     10 C26        -15.3760    -8.4890   -22.3450 ca         1 5YX       0.169000
     11 C25        -12.0470    -9.8220   -19.9400 ca         1 5YX       0.248000
     12 C14        -10.9410   -13.1370   -27.9440 c3         1 5YX      -0.336100
     13 C17        -17.1950    -7.5120   -20.4520 ca         1 5YX      -0.123000
     14 C22        -13.2940   -10.1480   -17.4430 ca         1 5YX       0.141000
     15 C21        -13.2370    -8.8750   -18.0340 ca         1 5YX      -0.031000
     16 C19        -14.9260    -7.5990   -21.3380 ca         1 5YX       0.204000
     17 C18        -15.8480    -7.1280   -20.3840 ca         1 5YX      -0.044000
     18 C5         -18.7930   -10.4600   -24.9340 cc         1 5YX       0.432700
     19 C6         -17.2380    -9.8390   -23.4450 cd         1 5YX       0.362500
     20 N1         -18.5110    -9.6110   -23.9480 nd         1 5YX      -0.637000
     21 C1         -19.8780   -10.1410   -27.1880 c3         1 5YX      -0.086433
     22 C11        -13.2430   -12.2990   -23.8740 ca         1 5YX       0.139300
     23 C13        -12.2390   -13.9570   -25.5300 c3         1 5YX      -0.286400
     24 C15        -16.7240    -8.9310   -22.3930 ca         1 5YX      -0.154500
     25 C16        -17.6330    -8.3880   -21.4570 ca         1 5YX      -0.056000
     26 C20        -12.6040    -8.7040   -19.2880 ca         1 5YX      -0.318500
     27 C3         -21.1250    -9.4270   -25.1180 c3         1 5YX      -0.086433
     28 F2         -11.4710    -9.7060   -21.1570 f          1 5YX      -0.162000
     29 N2         -13.0680   -12.6670   -22.5860 nb         1 5YX      -0.173000
     30 N4         -13.5900    -7.1630   -21.3330 nu         1 5YX      -0.898100
     31 O1         -11.2090   -15.6750   -27.2730 o          1 5YX      -0.514000
     32 O2          -9.6190   -14.2270   -25.9320 o          1 5YX      -0.514000
     33 S1         -17.5140   -11.5750   -25.3630 ss         1 5YX       0.076600
     34 S2         -10.8870   -14.3830   -26.6560 s6         1 5YX       1.074000
     35 S3         -12.5260    -7.0830   -20.0390 sy         1 5YX       1.179600
     36 H1         -13.9680   -12.7360   -20.7090 h4         1 5YX       0.033100
     37 H2         -16.1030   -11.6470   -21.5050 ha         1 5YX       0.146000
     38 H3         -20.9360   -12.1530   -24.5300 hc         1 5YX       0.044144
     39 H4         -21.7520   -11.9000   -26.0860 hc         1 5YX       0.044144
     40 H5         -20.1500   -12.6510   -26.0410 hc         1 5YX       0.044144
     41 H6         -12.7660   -12.2380   -17.6220 ha         1 5YX       0.136000
     42 H7         -11.6570   -11.9440   -19.8450 ha         1 5YX       0.141000
     43 H8         -10.7060   -12.1690   -27.4910 h1         1 5YX       0.102700
     44 H9         -10.1920   -13.4090   -28.6950 h1         1 5YX       0.102700
     45 H10        -11.9490   -13.1420   -28.3730 h1         1 5YX       0.102700
     46 H11        -17.9060    -7.1220   -19.7270 ha         1 5YX       0.131000
     47 H12        -13.6850    -8.0320   -17.5120 ha         1 5YX       0.163000
     48 H13        -15.5390    -6.4300   -19.6140 ha         1 5YX       0.145000
     49 H14        -11.1390   -12.5350   -24.2900 hc         1 5YX       0.076700
     50 H15        -12.0460   -11.7790   -25.5870 hc         1 5YX       0.076700
     51 H16        -19.3960    -9.1610   -27.2940 hc         1 5YX       0.044144
     52 H17        -19.2320   -10.8890   -27.6640 hc         1 5YX       0.044144
     53 H18        -20.8220   -10.1150   -27.7460 hc         1 5YX       0.044144
     54 H19        -13.1570   -13.9950   -26.1280 h1         1 5YX       0.111700
     55 H20        -12.2660   -14.7590   -24.7850 h1         1 5YX       0.111700
     56 H21        -18.6840    -8.6700   -21.4870 ha         1 5YX       0.131000
     57 H22        -21.3430    -9.6280   -24.0610 hc         1 5YX       0.044144
     58 H23        -20.7220    -8.4100   -25.1950 hc         1 5YX       0.044144
     59 H24        -22.0760    -9.4510   -25.6650 hc         1 5YX       0.044144
     60 H25        -13.0130    -7.5170   -22.0860 hn         1 5YX       0.515000
     61 F3         -14.5050    -8.8380   -23.3220 f          1 5YX      -0.170000
     62 C12        -12.0930   -12.5750   -24.8320 c3         1 5YX      -0.089700
     63 F1         -13.8980   -10.3070   -16.2450 f          1 5YX      -0.160000
     64 O3         -13.0940    -6.0730   -19.1440 o          1 5YX      -0.522500
     65 O4         -11.2370    -6.8960   -20.7050 o          1 5YX      -0.522500
@<TRIPOS>BOND
     1     1     7 1   
     2     1    18 1   
     3     1    21 1   
     4     1    27 1   
     5     2     4 ar  
     6     2    22 ar  
     7     3     4 1   
     8     3    19 2   
     9     3    33 1   
    10     4     6 ar  
    11     5     6 ar  
    12     5    29 ar  
    13     5    36 1   
    14     6    37 1   
    15     7    38 1   
    16     7    39 1   
    17     7    40 1   
    18     8     9 ar  
    19     8    14 ar  
    20     8    41 1   
    21     9    11 ar  
    22     9    42 1   
    23    10    16 ar  
    24    10    24 ar  
    25    10    61 1   
    26    11    26 ar  
    27    11    28 1   
    28    12    34 1   
    29    12    43 1   
    30    12    44 1   
    31    12    45 1   
    32    13    17 ar  
    33    13    25 ar  
    34    13    46 1   
    35    14    15 ar  
    36    14    63 1   
    37    15    26 ar  
    38    15    47 1   
    39    16    17 ar  
    40    16    30 1   
    41    17    48 1   
    42    18    20 2   
    43    18    33 1   
    44    19    20 1   
    45    19    24 1   
    46    21    51 1   
    47    21    52 1   
    48    21    53 1   
    49    22    29 ar  
    50    22    62 1   
    51    23    34 1   
    52    23    54 1   
    53    23    55 1   
    54    23    62 1   
    55    24    25 ar  
    56    25    56 1   
    57    26    35 1   
    58    27    57 1   
    59    27    58 1   
    60    27    59 1   
    61    30    35 1   
    62    30    60 1   
    63    31    34 2   
    64    32    34 2   
    65    35    64 2   
    66    35    65 2   
    67    49    62 1   
    68    50    62 1   
@<TRIPOS>SUBSTRUCTURE
     1 5YX         1 TEMP              0 ****  ****    0 ROOT
