@<TRIPOS>MOLECULE
5YY
   87    91     1     0     0
SMALL
abcg2


@<TRIPOS>ATOM
      1 N1          22.3590    -7.3910    -4.9570 n          1 5YY      -0.372800
      2 N3          14.1390   -12.1580    -8.0770 n          1 5YY      -0.264000
      3 C4          24.7470    -7.3690    -5.5170 c          1 5YY       0.590100
      4 C5          23.4270    -8.1290    -5.5860 c3         1 5YY       0.008000
      5 C6          21.5220    -6.5720    -5.8100 c3         1 5YY       0.147300
      6 C7          20.4520    -7.3300    -6.5570 ca         1 5YY      -0.111300
      7 C8          19.8200    -6.6770    -7.6330 ca         1 5YY      -0.134000
      8 C10         18.3420    -8.5180    -7.9320 ca         1 5YY       0.080400
      9 C13         16.7800   -12.8480    -7.9030 cc         1 5YY      -0.098000
     10 C15         16.2340   -15.2790    -8.1570 c3         1 5YY      -0.036900
     11 C17         12.7310   -11.7960    -8.1700 c3         1 5YY       0.072300
     12 C20         17.9660   -10.6280    -4.2980 c6         1 5YY      -0.080700
     13 C21         18.2390   -11.5460    -3.1100 c6         1 5YY      -0.114900
     14 C22         17.6350   -10.9580    -1.8440 c6         1 5YY       0.159100
     15 C24         16.4720   -10.3290    -4.3740 c6         1 5YY      -0.114900
     16 C26         20.0520    -8.6000    -6.1780 ca         1 5YY      -0.112000
     17 C28         21.2990    -6.5470    -2.9240 cc         1 5YY      -0.015000
     18 N7          18.1170    -2.9390     0.6980 n2         1 5YY      -0.201400
     19 N6          18.2320    -3.7580    -0.1300 ne         1 5YY       0.187000
     20 C31         19.3200    -5.2870    -1.4980 cd         1 5YY       0.360900
     21 C30         20.6150    -4.7740    -1.4440 cd         1 5YY      -0.196100
     22 C29         21.6040    -5.4230    -2.1550 cc         1 5YY      -0.139500
     23 C32         19.0000    -6.4180    -2.2350 cd         1 5YY      -0.196100
     24 C33         20.0020    -7.0450    -2.9510 cc         1 5YY      -0.139500
     25 C27         22.4150    -7.2750    -3.6150 c2         1 5YY       0.603300
     26 O5          23.3110    -7.7610    -2.9460 o          1 5YY      -0.575300
     27 O2          24.7880    -6.1540    -5.4100 o          1 5YY      -0.611100
     28 N           25.8410    -8.1330    -5.6320 ns         1 5YY      -0.490900
     29 C3          27.1590    -7.5640    -5.6750 c3         1 5YY       0.036000
     30 C2          28.2000    -8.6570    -5.7170 c          1 5YY       0.587100
     31 O1          27.9530    -9.8340    -5.6580 o          1 5YY      -0.494000
     32 O           29.4090    -8.1440    -5.8270 os         1 5YY      -0.442100
     33 C1          30.5280    -9.0470    -5.8870 c3         1 5YY       0.168600
     34 C           31.7700    -8.2240    -6.1210 c3         1 5YY      -0.100100
     35 C25         18.9920    -9.1680    -6.8760 ca         1 5YY      -0.090200
     36 C9          18.7740    -7.2510    -8.3270 ca         1 5YY      -0.036000
     37 N4          18.3430   -10.3690    -6.7300 na         1 5YY      -0.170600
     38 C19         18.5170   -11.2380    -5.5820 c3         1 5YY       0.079600
     39 C23         15.9750    -9.8160    -3.0320 c6         1 5YY       0.159100
     40 O4          16.2530   -10.7130    -1.9810 os         1 5YY      -0.438000
     41 C11         17.3500   -10.3850    -7.6730 cc         1 5YY       0.514100
     42 N2          17.3290    -9.3060    -8.4130 nd         1 5YY      -0.571100
     43 C12         16.3960   -11.4840    -7.8190 cc         1 5YY      -0.259600
     44 C18         15.0710   -11.1940    -7.9230 cd         1 5YY       0.018600
     45 C16         14.4520   -13.5120    -8.1390 c          1 5YY       0.546200
     46 O3          13.5590   -14.3420    -8.2600 o          1 5YY      -0.532000
     47 C14         15.8610   -13.8360    -8.0570 cd         1 5YY      -0.192400
     48 H1          23.1690    -8.2770    -6.6370 h1         1 5YY       0.086700
     49 H2          23.5220    -9.1230    -5.1470 h1         1 5YY       0.086700
     50 H3          22.1650    -6.0470    -6.5200 h1         1 5YY       0.065700
     51 H4          21.0570    -5.7890    -5.2080 h1         1 5YY       0.065700
     52 H5          20.1650    -5.6890    -7.9160 ha         1 5YY       0.118000
     53 H6          17.8320   -13.1090    -7.8670 ha         1 5YY       0.189000
     54 H7          17.3130   -15.4040    -8.0890 hc         1 5YY       0.052367
     55 H8          15.7740   -15.8660    -7.3600 hc         1 5YY       0.052367
     56 H9          15.9010   -15.7130    -9.1020 hc         1 5YY       0.052367
     57 H10         12.6400   -10.7160    -8.1120 h1         1 5YY       0.060700
     58 H11         12.3100   -12.1360    -9.1140 h1         1 5YY       0.060700
     59 H12         12.1670   -12.2420    -7.3530 h1         1 5YY       0.060700
     60 H13         18.4870    -9.6820    -4.1060 hc         1 5YY       0.033700
     61 H14         17.8110   -12.5370    -3.2980 hc         1 5YY       0.060950
     62 H15         19.3140   -11.6820    -2.9650 hc         1 5YY       0.060950
     63 H16         17.7560   -11.6430    -1.0030 h1         1 5YY       0.039200
     64 H17         18.1640   -10.0270    -1.5910 h1         1 5YY       0.039200
     65 H18         16.2540    -9.5780    -5.1380 hc         1 5YY       0.060950
     66 H19         15.9260   -11.2380    -4.6510 hc         1 5YY       0.060950
     67 H20         20.5400    -9.1280    -5.3680 ha         1 5YY       0.115000
     68 H21         17.8960    -1.9930     0.3560 hn         1 5YY       0.502400
     69 H22         20.8510    -3.8930    -0.8620 ha         1 5YY       0.216500
     70 H23         22.6160    -5.0430    -2.1210 ha         1 5YY       0.235500
     71 H24         17.9870    -6.7980    -2.2440 ha         1 5YY       0.216500
     72 H25         19.7610    -7.9300    -3.5220 ha         1 5YY       0.235500
     73 H26         25.7570    -9.1380    -5.6840 hn         1 5YY       0.344500
     74 H27         27.2890    -6.9170    -6.5480 h1         1 5YY       0.086200
     75 H28         27.3480    -6.9380    -4.7970 h1         1 5YY       0.086200
     76 H29         30.3750    -9.7640    -6.6960 h1         1 5YY       0.053200
     77 H30         30.5940    -9.6030    -4.9500 h1         1 5YY       0.053200
     78 H31         32.6330    -8.8880    -6.1650 hc         1 5YY       0.052033
     79 H32         31.7190    -7.6800    -7.0640 hc         1 5YY       0.052033
     80 H33         31.9390    -7.5110    -5.3140 hc         1 5YY       0.052033
     81 H34         18.2980    -6.7310    -9.1480 ha         1 5YY       0.140000
     82 H35         18.0220   -12.1890    -5.7780 h1         1 5YY       0.072200
     83 H36         19.5820   -11.4540    -5.4730 h1         1 5YY       0.072200
     84 H37         16.4350    -8.8350    -2.8280 h1         1 5YY       0.039200
     85 H38         14.8930    -9.6710    -3.0500 h1         1 5YY       0.039200
     86 H39         14.7060   -10.1770    -7.8770 h4         1 5YY       0.212000
     87 N5          18.2520    -4.7000    -0.8060 ne         1 5YY      -0.163700
@<TRIPOS>BOND
     1     1     4 1   
     2     1     5 1   
     3     1    25 1   
     4     2    11 1   
     5     2    44 1   
     6     2    45 1   
     7     3     4 1   
     8     3    27 2   
     9     3    28 1   
    10     4    48 1   
    11     4    49 1   
    12     5     6 1   
    13     5    50 1   
    14     5    51 1   
    15     6     7 ar  
    16     6    16 ar  
    17     7    36 ar  
    18     7    52 1   
    19     8    35 ar  
    20     8    36 ar  
    21     8    42 1   
    22     9    43 1   
    23     9    47 2   
    24     9    53 1   
    25    10    47 1   
    26    10    54 1   
    27    10    55 1   
    28    10    56 1   
    29    11    57 1   
    30    11    58 1   
    31    11    59 1   
    32    12    13 1   
    33    12    15 1   
    34    12    38 1   
    35    12    60 1   
    36    13    14 1   
    37    13    61 1   
    38    13    62 1   
    39    14    40 1   
    40    14    63 1   
    41    14    64 1   
    42    15    39 1   
    43    15    65 1   
    44    15    66 1   
    45    16    35 ar  
    46    16    67 1   
    47    17    22 1   
    48    17    24 1   
    49    17    25 2   
    50    18    19 2   
    51    18    68 1   
    52    19    87 1   
    53    20    21 1   
    54    20    23 1   
    55    20    87 2   
    56    21    22 2   
    57    21    69 1   
    58    22    70 1   
    59    23    24 2   
    60    23    71 1   
    61    24    72 1   
    62    25    26 1   
    63    28    29 1   
    64    28    73 1   
    65    29    30 1   
    66    29    74 1   
    67    29    75 1   
    68    30    31 2   
    69    30    32 1   
    70    32    33 1   
    71    33    34 1   
    72    33    76 1   
    73    33    77 1   
    74    34    78 1   
    75    34    79 1   
    76    34    80 1   
    77    35    37 1   
    78    36    81 1   
    79    37    38 1   
    80    37    41 1   
    81    38    82 1   
    82    38    83 1   
    83    39    40 1   
    84    39    84 1   
    85    39    85 1   
    86    41    42 2   
    87    41    43 1   
    88    43    44 2   
    89    44    86 1   
    90    45    46 2   
    91    45    47 1   
@<TRIPOS>SUBSTRUCTURE
     1 5YY         1 TEMP              0 ****  ****    0 ROOT
