@<TRIPOS>MOLECULE
5YY
   87    91     1     0     0
SMALL
No Charge or Current Charge


@<TRIPOS>ATOM
      1 N1          22.2090    -6.2700    -4.9380 n          1 5YY      -0.372800
      2 N3          13.8060   -11.5560    -7.6930 n          1 5YY      -0.264000
      3 C4          24.6030    -7.1980    -5.1190 c          1 5YY       0.590100
      4 C5          23.1390    -7.4030    -4.6700 c3         1 5YY       0.008000
      5 C6          21.7450    -6.0940    -6.3300 c3         1 5YY       0.147300
      6 C7          20.3450    -6.6470    -6.5430 ca         1 5YY      -0.111300
      7 C8          19.2140    -5.7980    -6.4340 ca         1 5YY      -0.134000
      8 C10         17.7610    -7.6980    -6.7780 ca         1 5YY       0.080400
      9 C13         16.5560   -12.0190    -8.1040 cc         1 5YY      -0.098000
     10 C15         16.0620   -14.3380    -9.0180 c3         1 5YY      -0.036900
     11 C17         12.3630   -11.2960    -7.4800 c3         1 5YY       0.072300
     12 C20         19.6190   -10.8310    -5.0170 c6         1 5YY      -0.080700
     13 C21         20.4840   -12.0520    -4.6020 c6         1 5YY      -0.114900
     14 C22         20.8570   -11.9790    -3.1020 c6         1 5YY       0.159100
     15 C24         18.4090   -10.6920    -4.0490 c6         1 5YY      -0.114900
     16 C26         20.1640    -8.0250    -6.7840 ca         1 5YY      -0.112000
     17 C28         20.6670    -5.4410    -3.3090 cc         1 5YY      -0.015000
     18 N7          14.8600    -4.8280    -1.3320 n2         1 5YY      -0.201400
     19 N6          15.9900    -4.7010    -1.8800 ne         1 5YY       0.187000
     20 C31         18.0850    -5.5950    -2.0980 cd         1 5YY       0.360900
     21 C30         18.8470    -4.3740    -2.0240 cd         1 5YY      -0.196100
     22 C29         20.0940    -4.3070    -2.6210 cc         1 5YY      -0.139500
     23 C32         18.6350    -6.7370    -2.7710 cd         1 5YY      -0.196100
     24 C33         19.8850    -6.6580    -3.3580 cc         1 5YY      -0.139500
     25 C27         21.8890    -5.3290    -3.9430 c2         1 5YY       0.603300
     26 O5          22.5760    -4.3100    -3.8540 o          1 5YY      -0.575300
     27 O2          25.0050    -6.1990    -5.7010 o          1 5YY      -0.611100
     28 N           25.4470    -8.2450    -4.8230 ns         1 5YY      -0.490900
     29 C3          26.8910    -8.2760    -5.1620 c3         1 5YY       0.036000
     30 C2          27.5700    -9.5850    -4.7090 c          1 5YY       0.587100
     31 O1          26.9900   -10.4980    -4.1320 o          1 5YY      -0.494000
     32 O           28.9020    -9.5980    -5.0310 os         1 5YY      -0.442100
     33 C1          29.6730   -10.7570    -4.6720 c3         1 5YY       0.168600
     34 C           31.1150   -10.5140    -5.1430 c3         1 5YY      -0.100100
     35 C25         18.8510    -8.5100    -6.8780 ca         1 5YY      -0.090200
     36 C9          17.9090    -6.3220    -6.5550 ca         1 5YY      -0.036000
     37 N4          18.3880    -9.7870    -7.0400 na         1 5YY      -0.170600
     38 C19         19.1760   -10.9330    -6.5120 c3         1 5YY       0.079600
     39 C23         18.8820   -10.6880    -2.5750 c6         1 5YY       0.159100
     40 O4          19.6600   -11.8730    -2.3040 os         1 5YY      -0.438000
     41 C11         16.9870    -9.6760    -7.1790 cc         1 5YY       0.514100
     42 N2          16.5800    -8.4100    -6.9410 nd         1 5YY      -0.571100
     43 C12         16.1050   -10.7730    -7.5390 cc         1 5YY      -0.259600
     44 C18         14.7450   -10.5720    -7.3860 cd         1 5YY       0.018600
     45 C16         14.1850   -12.8160    -8.2080 c          1 5YY       0.546200
     46 O3          13.3570   -13.6820    -8.4700 o          1 5YY      -0.532000
     47 C14         15.6490   -13.0090    -8.4210 cd         1 5YY      -0.192400
     48 H1          22.7650    -8.3060    -5.1660 h1         1 5YY       0.086700
     49 H2          23.1560    -7.6060    -3.5910 h1         1 5YY       0.086700
     50 H3          22.4410    -6.5920    -7.0180 h1         1 5YY       0.065700
     51 H4          21.7590    -5.0250    -6.5770 h1         1 5YY       0.065700
     52 H5          19.3460    -4.7360    -6.2390 ha         1 5YY       0.118000
     53 H6          17.6060   -12.1710    -8.3390 ha         1 5YY       0.189000
     54 H7          17.1490   -14.4080    -9.1420 hc         1 5YY       0.052367
     55 H8          15.7510   -15.1730    -8.3780 hc         1 5YY       0.052367
     56 H9          15.6080   -14.4850   -10.0060 hc         1 5YY       0.052367
     57 H10         12.2000   -10.2840    -7.0880 h1         1 5YY       0.060700
     58 H11         11.8250   -11.3960    -8.4310 h1         1 5YY       0.060700
     59 H12         11.9600   -12.0210    -6.7610 h1         1 5YY       0.060700
     60 H13         20.2450    -9.9350    -4.9170 hc         1 5YY       0.033700
     61 H14         19.9390   -12.9870    -4.7930 hc         1 5YY       0.060950
     62 H15         21.4010   -12.0930    -5.2070 hc         1 5YY       0.060950
     63 H16         21.4060   -12.8840    -2.8050 h1         1 5YY       0.039200
     64 H17         21.5010   -11.1080    -2.9090 h1         1 5YY       0.039200
     65 H18         17.8560    -9.7670    -4.2560 hc         1 5YY       0.060950
     66 H19         17.7040   -11.5200    -4.2020 hc         1 5YY       0.060950
     67 H20         21.0160    -8.6950    -6.8660 ha         1 5YY       0.115000
     68 H21         14.3050    -4.0320    -1.6690 hn         1 5YY       0.502400
     69 H22         18.4460    -3.5100    -1.5020 ha         1 5YY       0.216500
     70 H23         20.6580    -3.3750    -2.5750 ha         1 5YY       0.235500
     71 H24         18.0570    -7.6540    -2.8220 ha         1 5YY       0.216500
     72 H25         20.2800    -7.5310    -3.8720 ha         1 5YY       0.235500
     73 H26         25.0480    -9.0450    -4.3400 hn         1 5YY       0.344500
     74 H27         27.0220    -8.1830    -6.2470 h1         1 5YY       0.086200
     75 H28         27.4070    -7.4390    -4.6750 h1         1 5YY       0.086200
     76 H29         29.2760   -11.6590    -5.1570 h1         1 5YY       0.053200
     77 H30         29.6640   -10.9130    -3.5850 h1         1 5YY       0.053200
     78 H31         31.7470   -11.3740    -4.8910 hc         1 5YY       0.052033
     79 H32         31.1470   -10.3700    -6.2300 hc         1 5YY       0.052033
     80 H33         31.5360    -9.6250    -4.6590 hc         1 5YY       0.052033
     81 H34         17.0370    -5.6780    -6.4740 ha         1 5YY       0.140000
     82 H35         18.5940   -11.8540    -6.5820 h1         1 5YY       0.072200
     83 H36         20.0680   -11.0540    -7.1410 h1         1 5YY       0.072200
     84 H37         19.4960    -9.7980    -2.3710 h1         1 5YY       0.039200
     85 H38         18.0140   -10.6670    -1.9010 h1         1 5YY       0.039200
     86 H39         14.3040    -9.6560    -6.9980 h4         1 5YY       0.212000
     87 N5          16.9020    -5.6970    -1.5460 ne         1 5YY      -0.163700
@<TRIPOS>BOND
     1     1     4 1   
     2     1     5 1   
     3     1    25 1   
     4     2    11 1   
     5     2    44 1   
     6     2    45 1   
     7     3     4 1   
     8     3    27 2   
     9     3    28 1   
    10     4    48 1   
    11     4    49 1   
    12     5     6 1   
    13     5    50 1   
    14     5    51 1   
    15     6     7 ar  
    16     6    16 ar  
    17     7    36 ar  
    18     7    52 1   
    19     8    35 ar  
    20     8    36 ar  
    21     8    42 1   
    22     9    43 1   
    23     9    47 2   
    24     9    53 1   
    25    10    47 1   
    26    10    54 1   
    27    10    55 1   
    28    10    56 1   
    29    11    57 1   
    30    11    58 1   
    31    11    59 1   
    32    12    13 1   
    33    12    15 1   
    34    12    38 1   
    35    12    60 1   
    36    13    14 1   
    37    13    61 1   
    38    13    62 1   
    39    14    40 1   
    40    14    63 1   
    41    14    64 1   
    42    15    39 1   
    43    15    65 1   
    44    15    66 1   
    45    16    35 ar  
    46    16    67 1   
    47    17    22 1   
    48    17    24 1   
    49    17    25 2   
    50    18    19 2   
    51    18    68 1   
    52    19    87 1   
    53    20    21 1   
    54    20    23 1   
    55    20    87 2   
    56    21    22 2   
    57    21    69 1   
    58    22    70 1   
    59    23    24 2   
    60    23    71 1   
    61    24    72 1   
    62    25    26 1   
    63    28    29 1   
    64    28    73 1   
    65    29    30 1   
    66    29    74 1   
    67    29    75 1   
    68    30    31 2   
    69    30    32 1   
    70    32    33 1   
    71    33    34 1   
    72    33    76 1   
    73    33    77 1   
    74    34    78 1   
    75    34    79 1   
    76    34    80 1   
    77    35    37 1   
    78    36    81 1   
    79    37    38 1   
    80    37    41 1   
    81    38    82 1   
    82    38    83 1   
    83    39    40 1   
    84    39    84 1   
    85    39    85 1   
    86    41    42 2   
    87    41    43 1   
    88    43    44 2   
    89    44    86 1   
    90    45    46 2   
    91    45    47 1   
@<TRIPOS>SUBSTRUCTURE
     1 5YY         1 TEMP              0 ****  ****    0 ROOT
