@<TRIPOS>MOLECULE
5YZ
   66    70     1     0     0
SMALL
No Charge or Current Charge


@<TRIPOS>ATOM
      1 C1         -36.9690    10.5580    -1.3200 c          1 5YZ       0.506600
      2 C10        -32.6530     9.9880    -5.7320 c6         1 5YZ       0.226300
      3 C11        -31.3930     7.6330    -1.3730 cc         1 5YZ       0.508900
      4 C12        -34.1090    12.2450    -6.8900 c6         1 5YZ       0.144800
      5 C13        -32.0590    10.9320    -6.8250 c6         1 5YZ       0.144800
      6 C14        -30.4910     8.2200    -2.2630 cc         1 5YZ      -0.223000
      7 C15        -29.3240     7.5290    -2.1420 cd         1 5YZ      -0.092300
      8 C16        -32.5360    12.3740    -8.7910 c3         1 5YZ       0.222100
      9 C17        -28.0650     7.7720    -2.8870 cx         1 5YZ      -0.085400
     10 C18        -31.6180    11.6110    -9.7400 ca         1 5YZ      -0.124300
     11 C19        -28.0890     8.2180    -4.3320 cx         1 5YZ      -0.111400
     12 C2         -35.6300    10.0980    -1.8950 ca         1 5YZ       0.140500
     13 C20        -27.6380     6.8210    -3.9800 cx         1 5YZ      -0.111400
     14 C21        -30.2350    11.8780    -9.7670 ca         1 5YZ      -0.066000
     15 C22        -32.1510    10.6280   -10.5950 ca         1 5YZ      -0.052000
     16 C23        -29.3810    11.1730   -10.6400 ca         1 5YZ      -0.173300
     17 C24        -31.3070     9.9220   -11.4680 ca         1 5YZ      -0.150000
     18 C25        -29.9300    10.1900   -11.4930 ca         1 5YZ       0.144100
     19 C26        -27.8860    11.4850   -10.6420 c3         1 5YZ      -0.047800
     20 C3         -38.5260    10.4190     0.6450 c3         1 5YZ       0.193100
     21 C4         -34.7510     9.2350    -1.1980 ca         1 5YZ      -0.339000
     22 C5         -38.5310     9.7440     1.9470 c1         1 5YZ      -0.176100
     23 C6         -34.1120    10.1430    -3.6430 ca         1 5YZ       0.437900
     24 C7         -33.5500     8.8860    -1.8180 ca         1 5YZ       0.435900
     25 C8         -38.5080     9.1750     3.0160 c1         1 5YZ      -0.215000
     26 C9         -34.7680    11.3430    -5.7970 c6         1 5YZ       0.226300
     27 N1         -37.2940    10.0900    -0.0630 ns         1 5YZ      -0.506900
     28 N2         -35.2890    10.5470    -3.1250 nb         1 5YZ      -0.247000
     29 N3         -33.2300     9.3300    -3.0370 nb         1 5YZ      -0.313000
     30 N4         -33.7630    10.6240    -4.9340 nh         1 5YZ      -0.774300
     31 N5         -32.6760     8.0310    -1.1700 nu         1 5YZ      -0.889800
     32 N6         -30.9110     6.6420    -0.6760 nd         1 5YZ      -0.583800
     33 N7         -33.1020    11.5220    -7.7190 n3         1 5YZ      -0.719600
     34 N8         -29.5990     6.5610    -1.1620 na         1 5YZ       0.002800
     35 O1         -37.7320    11.3030    -1.9250 o          1 5YZ      -0.553100
     36 O2         -29.1360     9.4880   -12.3500 oh         1 5YZ      -0.539100
     37 H1         -33.0260     9.0780    -6.2240 h1         1 5YZ       0.068950
     38 H2         -31.8170     9.6840    -5.0850 h1         1 5YZ       0.068950
     39 H3         -33.6360    13.1030    -6.3890 h1         1 5YZ       0.042450
     40 H4         -34.9070    12.6520    -7.5290 h1         1 5YZ       0.042450
     41 H5         -31.3300    10.3540    -7.4110 h1         1 5YZ       0.042450
     42 H6         -31.4980    11.7340    -6.3230 h1         1 5YZ       0.042450
     43 H7         -30.6840     9.0650    -2.9090 ha         1 5YZ       0.163000
     44 H8         -31.9840    13.2150    -8.3500 h1         1 5YZ       0.037700
     45 H9         -33.3510    12.8080    -9.3860 h1         1 5YZ       0.037700
     46 H10        -27.2730     8.1800    -2.2620 hc         1 5YZ       0.081700
     47 H11        -27.3330     8.9290    -4.6550 hc         1 5YZ       0.078450
     48 H12        -29.0540     8.3250    -4.8230 hc         1 5YZ       0.078450
     49 H13        -28.3030     5.9970    -4.2280 hc         1 5YZ       0.078450
     50 H14        -26.5780     6.5920    -4.0680 hc         1 5YZ       0.078450
     51 H15        -29.8240    12.6360    -9.1030 ha         1 5YZ       0.107000
     52 H16        -33.2170    10.4110   -10.5770 ha         1 5YZ       0.128000
     53 H17        -31.7230     9.1630   -12.1260 ha         1 5YZ       0.129000
     54 H18        -27.5540    11.8340   -11.6280 hc         1 5YZ       0.041033
     55 H19        -27.6340    12.2710    -9.9200 hc         1 5YZ       0.041033
     56 H20        -27.2950    10.6000   -10.3760 hc         1 5YZ       0.041033
     57 H21        -38.5870    11.5060     0.7900 h1         1 5YZ       0.068700
     58 H22        -39.3900    10.0900     0.0520 h1         1 5YZ       0.068700
     59 H23        -34.9840     8.8520    -0.2110 ha         1 5YZ       0.133000
     60 H24        -38.5000     8.6760     3.9650 ha         1 5YZ       0.255000
     61 H25        -35.4190    11.9920    -5.1940 h1         1 5YZ       0.068950
     62 H26        -35.4180    10.6090    -6.2970 h1         1 5YZ       0.068950
     63 H27        -36.6310     9.4780     0.3940 hn         1 5YZ       0.321500
     64 H28        -33.0710     7.5700    -0.3590 hn         1 5YZ       0.513000
     65 H31        -28.2150     9.8020   -12.2360 ho         1 5YZ       0.465000
     66 H29        -28.9420     5.8640    -0.8130 hn         1 5YZ       0.372000
@<TRIPOS>BOND
     1     1    12 1   
     2     1    27 1   
     3     1    35 2   
     4     2     5 1   
     5     2    30 1   
     6     2    37 1   
     7     2    38 1   
     8     3     6 1   
     9     3    31 1   
    10     3    32 2   
    11     4    26 1   
    12     4    33 1   
    13     4    39 1   
    14     4    40 1   
    15     5    33 1   
    16     5    41 1   
    17     5    42 1   
    18     6     7 2   
    19     6    43 1   
    20     7     9 1   
    21     7    34 1   
    22     8    10 1   
    23     8    33 1   
    24     8    44 1   
    25     8    45 1   
    26     9    11 1   
    27     9    13 1   
    28     9    46 1   
    29    10    14 ar  
    30    10    15 ar  
    31    11    13 1   
    32    11    47 1   
    33    11    48 1   
    34    12    21 ar  
    35    12    28 ar  
    36    13    49 1   
    37    13    50 1   
    38    14    16 ar  
    39    14    51 1   
    40    15    17 ar  
    41    15    52 1   
    42    16    18 ar  
    43    16    19 1   
    44    17    18 ar  
    45    17    53 1   
    46    18    36 1   
    47    19    54 1   
    48    19    55 1   
    49    19    56 1   
    50    20    22 1   
    51    20    27 1   
    52    20    57 1   
    53    20    58 1   
    54    21    24 ar  
    55    21    59 1   
    56    22    25 3   
    57    23    28 ar  
    58    23    29 ar  
    59    23    30 1   
    60    24    29 ar  
    61    24    31 1   
    62    25    60 1   
    63    26    30 1   
    64    26    61 1   
    65    26    62 1   
    66    27    63 1   
    67    31    64 1   
    68    32    34 1   
    69    34    66 1   
    70    36    65 1   
@<TRIPOS>SUBSTRUCTURE
     1 5YZ         1 TEMP              0 ****  ****    0 ROOT
