@<TRIPOS>MOLECULE
5YZ
   66    70     1     0     0
SMALL
bcc


@<TRIPOS>ATOM
      1 C1         -36.8280     9.8710    -1.2600 c          1 5YZ       0.573600
      2 C10        -32.8120     9.3670    -5.7390 c6         1 5YZ       0.226300
      3 C11        -31.2140     7.2760    -1.5910 cc         1 5YZ       0.574200
      4 C12        -34.3260    11.6550    -6.4510 c6         1 5YZ       0.144800
      5 C13        -32.2030    10.5850    -6.4100 c6         1 5YZ       0.144800
      6 C14        -30.5610     7.4460    -2.8260 cc         1 5YZ      -0.306300
      7 C15        -29.3720     6.7570    -2.6780 cd         1 5YZ      -0.041600
      8 C16        -32.6070    12.3710    -7.9700 c3         1 5YZ       0.222100
      9 C17        -28.2530     6.5390    -3.6030 cx         1 5YZ      -0.085400
     10 C18        -31.6010    11.9260    -8.9980 ca         1 5YZ      -0.124300
     11 C19        -27.9300     7.5780    -4.6410 cx         1 5YZ      -0.111400
     12 C2         -35.5020     9.4710    -1.8540 ca         1 5YZ       0.468800
     13 C20        -28.5290     6.2790    -5.0600 cx         1 5YZ      -0.111400
     14 C21        -30.3220    12.4650    -9.0360 ca         1 5YZ      -0.084000
     15 C22        -31.9330    10.9640    -9.9470 ca         1 5YZ      -0.070000
     16 C23        -29.3730    12.0860    -9.9820 ca         1 5YZ      -0.173300
     17 C24        -31.0110    10.5600   -10.8980 ca         1 5YZ      -0.168000
     18 C25        -29.7330    11.1140   -10.9190 ca         1 5YZ       0.144100
     19 C26        -28.0000    12.6950    -9.9890 c3         1 5YZ      -0.047800
     20 C3         -37.9570    10.7480     0.7130 c3         1 5YZ       0.193100
     21 C4         -34.5690     8.7930    -1.1100 ca         1 5YZ      -0.487600
     22 C5         -38.4370    12.0660     0.2950 c1         1 5YZ      -0.176100
     23 C6         -34.1910     9.4120    -3.6940 ca         1 5YZ       0.963900
     24 C7         -33.3920     8.4290    -1.8010 ca         1 5YZ       0.764200
     25 C8         -38.8250    13.1530    -0.0380 c1         1 5YZ      -0.127500
     26 C9         -34.9700    10.4510    -5.7850 c6         1 5YZ       0.226300
     27 N1         -36.7710    10.3260     0.0040 ns         1 5YZ      -0.573900
     28 N2         -35.3450     9.7830    -3.1350 nb         1 5YZ      -0.773000
     29 N3         -33.2100     8.7420    -3.0710 nb         1 5YZ      -0.839000
     30 N4         -33.9930     9.7370    -4.9900 nh         1 5YZ      -0.774300
     31 N5         -32.4370     7.7410    -1.1350 nu         1 5YZ      -0.834600
     32 N6         -30.4940     6.5520    -0.7520 nd         1 5YZ      -0.583800
     33 N7         -33.1800    11.2540    -7.2440 n3         1 5YZ      -0.719600
     34 N8         -29.3860     6.2530    -1.4360 na         1 5YZ       0.002400
     35 O1         -37.8640     9.7670    -1.8900 o          1 5YZ      -0.553100
     36 O2         -28.8830    10.6660   -11.8700 oh         1 5YZ      -0.500100
     37 H1         -33.0820     8.6290    -6.5030 h1         1 5YZ       0.068950
     38 H2         -32.0840     8.9080    -5.0800 h1         1 5YZ       0.068950
     39 H3         -34.0560    12.3930    -5.6770 h1         1 5YZ       0.042450
     40 H4         -35.0640    12.1290    -7.1040 h1         1 5YZ       0.042450
     41 H5         -31.3620    10.2550    -7.0220 h1         1 5YZ       0.042450
     42 H6         -31.7970    11.2620    -5.6380 h1         1 5YZ       0.042450
     43 H7         -30.8990     7.9840    -3.6900 ha         1 5YZ       0.181000
     44 H8         -32.1370    13.1060    -7.2940 h1         1 5YZ       0.037700
     45 H9         -33.4280    12.8960    -8.4680 h1         1 5YZ       0.037700
     46 H10        -27.4100     6.0110    -3.1720 hc         1 5YZ       0.081700
     47 H11        -26.8850     7.7590    -4.8550 hc         1 5YZ       0.078450
     48 H12        -28.5550     8.4630    -4.6730 hc         1 5YZ       0.078450
     49 H13        -29.5640     6.2710    -5.3760 hc         1 5YZ       0.078450
     50 H14        -27.8990     5.5580    -5.5650 hc         1 5YZ       0.078450
     51 H15        -30.0430    13.2100    -8.2970 ha         1 5YZ       0.125000
     52 H16        -32.9200    10.5180    -9.9410 ha         1 5YZ       0.146000
     53 H17        -31.2760     9.8100   -11.6330 ha         1 5YZ       0.147000
     54 H18        -27.7810    13.2070   -10.9300 hc         1 5YZ       0.041033
     55 H19        -27.9010    13.4330    -9.1950 hc         1 5YZ       0.041033
     56 H20        -27.2150    11.9500    -9.8340 hc         1 5YZ       0.041033
     57 H21        -38.7490    10.0100     0.5790 h1         1 5YZ       0.068700
     58 H22        -37.7220    10.7660     1.7780 h1         1 5YZ       0.068700
     59 H23        -34.7270     8.5180    -0.0770 ha         1 5YZ       0.151000
     60 H24        -39.1700    14.1160    -0.3370 ha         1 5YZ       0.167500
     61 H25        -35.7960    10.7700    -5.1560 h1         1 5YZ       0.068950
     62 H26        -35.3710     9.7800    -6.5530 h1         1 5YZ       0.068950
     63 H27        -35.8780    10.5240     0.4260 hn         1 5YZ       0.321500
     64 H28        -32.6370     7.5110    -0.1730 hn         1 5YZ       0.457800
     65 H31        -28.0310    11.1110   -11.8150 ho         1 5YZ       0.426000
     66 H29        -28.6700     5.6940    -1.0000 hn         1 5YZ       0.321700
@<TRIPOS>BOND
     1     1    12 1   
     2     1    27 1   
     3     1    35 2   
     4     2     5 1   
     5     2    30 1   
     6     2    37 1   
     7     2    38 1   
     8     3     6 1   
     9     3    31 1   
    10     3    32 2   
    11     4    26 1   
    12     4    33 1   
    13     4    39 1   
    14     4    40 1   
    15     5    33 1   
    16     5    41 1   
    17     5    42 1   
    18     6     7 2   
    19     6    43 1   
    20     7     9 1   
    21     7    34 1   
    22     8    10 1   
    23     8    33 1   
    24     8    44 1   
    25     8    45 1   
    26     9    11 1   
    27     9    13 1   
    28     9    46 1   
    29    10    14 ar  
    30    10    15 ar  
    31    11    13 1   
    32    11    47 1   
    33    11    48 1   
    34    12    21 ar  
    35    12    28 ar  
    36    13    49 1   
    37    13    50 1   
    38    14    16 ar  
    39    14    51 1   
    40    15    17 ar  
    41    15    52 1   
    42    16    18 ar  
    43    16    19 1   
    44    17    18 ar  
    45    17    53 1   
    46    18    36 1   
    47    19    54 1   
    48    19    55 1   
    49    19    56 1   
    50    20    22 1   
    51    20    27 1   
    52    20    57 1   
    53    20    58 1   
    54    21    24 ar  
    55    21    59 1   
    56    22    25 3   
    57    23    28 ar  
    58    23    29 ar  
    59    23    30 1   
    60    24    29 ar  
    61    24    31 1   
    62    25    60 1   
    63    26    30 1   
    64    26    61 1   
    65    26    62 1   
    66    27    63 1   
    67    31    64 1   
    68    32    34 1   
    69    34    66 1   
    70    36    65 1   
@<TRIPOS>SUBSTRUCTURE
     1 5YZ         1 TEMP              0 ****  ****    0 ROOT
