@<TRIPOS>MOLECULE
5Z0
   50    54     1     0     0
SMALL
bcc


@<TRIPOS>ATOM
      1 N1          29.6980    15.7010    -2.7960 n2         1 5Z0      -0.579900
      2 N3          33.1850    12.5750    -6.4190 nc         1 5Z0      -0.395000
      3 C4          25.7050    14.7540    -1.7680 c3         1 5Z0      -0.036800
      4 C5          27.9100    15.9550    -1.1570 cc         1 5Z0      -0.210900
      5 C6          28.4920    15.9900    -2.5110 ce         1 5Z0       0.564500
      6 C7          27.6340    16.4760    -3.6170 ca         1 5Z0      -0.138900
      7 C8          27.7470    15.9200    -4.8890 ca         1 5Z0      -0.085500
      8 C10         26.0910    17.4380    -5.7080 ca         1 5Z0       0.040400
      9 C13         30.5840    15.2180    -1.7510 c3         1 5Z0       0.112200
     10 C17         31.8350    10.9440    -7.0160 cd         1 5Z0       0.333300
     11 C20         30.4890    17.9570     0.5770 cc         1 5Z0       0.412800
     12 C21         29.8090    18.8800     1.5140 c3         1 5Z0      -0.129400
     13 C11         25.9720    18.0150    -4.4530 ca         1 5Z0      -0.130500
     14 C12         26.7410    17.5240    -3.4110 ca         1 5Z0      -0.085500
     15 C14         31.8600    14.6940    -2.3910 c3         1 5Z0      -0.129400
     16 C16         32.3230    12.6250    -5.4540 cd         1 5Z0       0.509300
     17 C18         28.5760    16.4630    -0.0750 cd         1 5Z0       0.021700
     18 C19         30.8810    16.3570    -0.8390 cc         1 5Z0       0.380800
     19 C2          26.3180    15.6660     0.5140 cd         1 5Z0      -0.051400
     20 C3          26.6000    15.4720    -0.8070 cc         1 5Z0      -0.050300
     21 C9          26.9720    16.3900    -5.9360 ca         1 5Z0      -0.130500
     22 N2          32.4220    13.5460    -4.4470 ns         1 5Z0      -0.533400
     23 N4          32.8980    11.6070    -7.3160 nc         1 5Z0      -0.290000
     24 N5          29.8860    16.9230    -0.0890 na         1 5Z0      -0.252800
     25 N6          31.9880    16.9990    -0.6500 nd         1 5Z0      -0.342000
     26 N7          31.7440    17.9970     0.2400 nd         1 5Z0      -0.347000
     27 O1          30.6100    12.8590    -3.3110 o          1 5Z0      -0.574100
     28 S1          31.0600    11.4550    -5.5640 ss         1 5Z0      -0.177800
     29 S2          27.6370    16.4060     1.3550 ss         1 5Z0      -0.051800
     30 CL1         25.1210    18.0330    -7.0120 cl         1 5Z0      -0.104400
     31 H4          26.2280    13.9070    -2.2160 hc         1 5Z0       0.053033
     32 H5          24.8170    14.3660    -1.2750 hc         1 5Z0       0.053033
     33 H6          25.3710    15.3930    -2.5840 hc         1 5Z0       0.053033
     34 H7          28.4330    15.1010    -5.0590 ha         1 5Z0       0.148000
     35 H11         30.1070    14.4190    -1.1650 h1         1 5Z0       0.087700
     36 H18         30.4830    19.7000     1.7500 hc         1 5Z0       0.065700
     37 H16         28.8990    19.2940     1.0800 hc         1 5Z0       0.065700
     38 H17         29.5430    18.3870     2.4500 hc         1 5Z0       0.065700
     39 H9          25.2870    18.8350    -4.2870 ha         1 5Z0       0.151500
     40 H10         26.6460    17.9750    -2.4300 ha         1 5Z0       0.148000
     41 H12         32.5180    14.2620    -1.6310 hc         1 5Z0       0.091200
     42 H13         32.4100    15.5130    -2.8560 hc         1 5Z0       0.091200
     43 H8          27.0530    15.9440    -6.9180 ha         1 5Z0       0.151500
     44 H14         33.2010    14.1880    -4.5110 hn         1 5Z0       0.351500
     45 C15         31.5470    13.6260    -3.4030 c          1 5Z0       0.686100
     46 C1          25.0820    15.3580     1.2900 c3         1 5Z0      -0.026800
     47 H23         31.4540    10.1310    -7.6170 h5         1 5Z0       0.059100
     48 H3          24.6300    16.2680     1.6860 hc         1 5Z0       0.053367
     49 H1          24.3390    14.8730     0.6630 hc         1 5Z0       0.053367
     50 H2          25.2880    14.6970     2.1330 hc         1 5Z0       0.053367
@<TRIPOS>BOND
     1     1     5 2   
     2     1     9 1   
     3     2    16 2   
     4     2    23 1   
     5     3    20 1   
     6     3    31 1   
     7     3    32 1   
     8     3    33 1   
     9     4     5 1   
    10     4    17 2   
    11     4    20 1   
    12     5     6 1   
    13     6     7 ar  
    14     6    14 ar  
    15     7    21 ar  
    16     7    34 1   
    17     8    13 ar  
    18     8    21 ar  
    19     8    30 1   
    20     9    15 1   
    21     9    18 1   
    22     9    35 1   
    23    10    23 2   
    24    10    28 1   
    25    10    47 1   
    26    11    12 1   
    27    11    24 1   
    28    11    26 2   
    29    12    36 1   
    30    12    37 1   
    31    12    38 1   
    32    13    14 ar  
    33    13    39 1   
    34    14    40 1   
    35    15    41 1   
    36    15    42 1   
    37    15    45 1   
    38    16    22 1   
    39    16    28 1   
    40    17    24 1   
    41    17    29 1   
    42    18    24 1   
    43    18    25 2   
    44    19    20 2   
    45    19    29 1   
    46    19    46 1   
    47    21    43 1   
    48    22    44 1   
    49    22    45 1   
    50    25    26 1   
    51    27    45 2   
    52    46    48 1   
    53    46    49 1   
    54    46    50 1   
@<TRIPOS>SUBSTRUCTURE
     1 5Z0         1 TEMP              0 ****  ****    0 ROOT
