@<TRIPOS>MOLECULE
5Z0
   50    54     1     0     0
SMALL
No Charge or Current Charge


@<TRIPOS>ATOM
      1 N1          29.6620    15.3370    -2.8200 n2         1 5Z0      -0.579900
      2 N3          31.6280    12.5590    -6.5860 nc         1 5Z0      -0.395000
      3 C4          25.9240    14.4580    -1.8580 c3         1 5Z0      -0.036800
      4 C5          27.9400    15.9210    -1.2380 cc         1 5Z0      -0.210900
      5 C6          28.5000    15.8740    -2.5990 ce         1 5Z0       0.564500
      6 C7          27.8110    16.6370    -3.6990 ca         1 5Z0      -0.138900
      7 C8          28.2830    16.5680    -5.0330 ca         1 5Z0      -0.067500
      8 C10         26.5500    18.1110    -5.7630 ca         1 5Z0       0.132000
      9 C13         30.6750    15.2160    -1.7520 c3         1 5Z0       0.112200
     10 C17         31.4500    10.3220    -6.5270 cd         1 5Z0       0.333300
     11 C20         30.3170    18.1110     0.5040 cc         1 5Z0       0.412800
     12 C21         29.5870    19.0560     1.4150 c3         1 5Z0      -0.129400
     13 C11         26.0780    18.2030    -4.4470 ca         1 5Z0      -0.112500
     14 C12         26.7050    17.4770    -3.4190 ca         1 5Z0      -0.067500
     15 C14         32.0040    14.7510    -2.3940 c3         1 5Z0      -0.129400
     16 C16         31.6760    12.3280    -5.2820 cd         1 5Z0       0.509300
     17 C18         28.4660    16.5720    -0.1490 cd         1 5Z0      -0.123200
     18 C19         30.7950    16.5070    -0.9430 cc         1 5Z0       0.380800
     19 C2          26.3570    15.4860     0.4560 cd         1 5Z0      -0.196300
     20 C3          26.7140    15.2750    -0.8640 cc         1 5Z0      -0.050300
     21 C9          27.6530    17.2970    -6.0560 ca         1 5Z0      -0.112500
     22 N2          31.8030    13.3770    -4.4090 ns         1 5Z0      -0.466400
     23 N4          31.4970    11.3870    -7.3160 nc         1 5Z0      -0.290000
     24 N5          29.7740    17.0680    -0.2120 na         1 5Z0      -0.252800
     25 N6          31.9020    17.1990    -0.7070 nd         1 5Z0      -0.342000
     26 N7          31.5980    18.2100     0.1830 nd         1 5Z0      -0.347000
     27 O1          31.8220    12.3560    -2.3580 o          1 5Z0      -0.574100
     28 S1          31.5630    10.6450    -4.8160 ss         1 5Z0      -0.177800
     29 S2          27.5300    16.4820     1.3390 ss         1 5Z0       0.238000
     30 Cl1         25.7640    19.0220    -7.0460 cl         1 5Z0      -0.196000
     31 H4          26.5820    13.9140    -2.5460 hc         1 5Z0       0.053033
     32 H5          25.2990    13.7110    -1.3550 hc         1 5Z0       0.053033
     33 H6          25.2640    15.0980    -2.4540 hc         1 5Z0       0.053033
     34 H7          29.1370    15.9430    -5.2870 ha         1 5Z0       0.130000
     35 H11         30.3640    14.4370    -1.0410 h1         1 5Z0       0.087700
     36 H18         30.1590    19.9800     1.5570 hc         1 5Z0       0.065700
     37 H16         28.6120    19.3290     0.9970 hc         1 5Z0       0.065700
     38 H17         29.4310    18.6030     2.4000 hc         1 5Z0       0.065700
     39 H9          25.2280    18.8420    -4.2200 ha         1 5Z0       0.133500
     40 H10         26.3250    17.5800    -2.4050 ha         1 5Z0       0.130000
     41 H12         32.7630    14.6760    -1.6070 hc         1 5Z0       0.091200
     42 H13         32.3120    15.4940    -3.1390 hc         1 5Z0       0.091200
     43 H8          28.0200    17.2300    -7.0770 ha         1 5Z0       0.133500
     44 H14         31.8380    14.2970    -4.8210 hn         1 5Z0       0.351500
     45 C15         31.8550    13.3720    -3.0350 c          1 5Z0       0.619100
     46 C1          25.1310    14.9670     1.1660 c3         1 5Z0      -0.026800
     47 H23         31.3500     9.3020    -6.8750 h5         1 5Z0       0.059100
     48 H3          25.0330    15.4010     2.1680 hc         1 5Z0       0.053367
     49 H1          24.2190    15.2120     0.6080 hc         1 5Z0       0.053367
     50 H2          25.1740    13.8770     1.2780 hc         1 5Z0       0.053367
@<TRIPOS>BOND
     1     1     5 2   
     2     1     9 1   
     3     2    16 2   
     4     2    23 1   
     5     3    20 1   
     6     3    31 1   
     7     3    32 1   
     8     3    33 1   
     9     4     5 1   
    10     4    17 2   
    11     4    20 1   
    12     5     6 1   
    13     6     7 ar  
    14     6    14 ar  
    15     7    21 ar  
    16     7    34 1   
    17     8    13 ar  
    18     8    21 ar  
    19     8    30 1   
    20     9    15 1   
    21     9    18 1   
    22     9    35 1   
    23    10    23 2   
    24    10    28 1   
    25    10    47 1   
    26    11    12 1   
    27    11    24 1   
    28    11    26 2   
    29    12    36 1   
    30    12    37 1   
    31    12    38 1   
    32    13    14 ar  
    33    13    39 1   
    34    14    40 1   
    35    15    41 1   
    36    15    42 1   
    37    15    45 1   
    38    16    22 1   
    39    16    28 1   
    40    17    24 1   
    41    17    29 1   
    42    18    24 1   
    43    18    25 2   
    44    19    20 2   
    45    19    29 1   
    46    19    46 1   
    47    21    43 1   
    48    22    44 1   
    49    22    45 1   
    50    25    26 1   
    51    27    45 2   
    52    46    48 1   
    53    46    49 1   
    54    46    50 1   
@<TRIPOS>SUBSTRUCTURE
     1 5Z0         1 TEMP              0 ****  ****    0 ROOT
