@<TRIPOS>MOLECULE
5Z1
  125   130     1     0     0
SMALL
No Charge or Current Charge


@<TRIPOS>ATOM
      1 C10         -7.1470     5.2470     6.8950 c3         1 5Z1       0.070000
      2 C13         -5.6650     8.4200     6.0630 c          1 5Z1       0.599100
      3 C17         -2.7790     8.0680     8.4530 c3         1 5Z1       0.148600
      4 C20         -1.2400     6.0980     5.6420 c3         1 5Z1       0.153600
      5 C22         -0.0850     5.3600     3.6540 c3         1 5Z1       0.249700
      6 C24          1.3030     6.2780     1.5530 c1         1 5Z1      -0.211000
      7 C28         -9.8640     5.6990     8.5280 ca         1 5Z1      -0.095000
      8 C01         -2.0140     1.5440    11.3370 c3         1 5Z1       0.200100
      9 N02         -2.0420     2.6000    10.3010 nh         1 5Z1      -0.795400
     10 C03         -1.7550     3.9930    10.7500 c3         1 5Z1       0.211800
     11 C04         -2.8950     5.0170    10.5010 c3         1 5Z1       0.120600
     12 O05         -4.0480     4.6550    11.2970 os         1 5Z1      -0.463000
     13 C06         -5.2890     5.3210    10.9660 c3         1 5Z1       0.168600
     14 C07         -5.8730     4.7400     9.6520 c3         1 5Z1       0.109600
     15 O08         -5.3410     5.4650     8.5210 os         1 5Z1      -0.457000
     16 C09         -5.6720     4.9190     7.2260 c3         1 5Z1       0.132600
     17 N11         -7.4550     6.7060     6.8520 n          1 5Z1      -0.408800
     18 C12         -6.8540     7.4880     5.7240 c3         1 5Z1       0.013000
     19 O14         -5.3720     9.3740     5.3540 o          1 5Z1      -0.605100
     20 N15         -4.9720     8.1370     7.2210 ns         1 5Z1      -0.495900
     21 C16         -3.8510     8.9310     7.7440 c3         1 5Z1       0.067000
     22 O18         -2.3430     6.9920     7.5930 os         1 5Z1      -0.463000
     23 C19         -1.6000     7.3800     6.4180 c3         1 5Z1       0.152600
     24 O21         -0.4810     6.4680     4.4770 os         1 5Z1      -0.449000
     25 C23          0.6740     5.8780     2.5080 c1         1 5Z1      -0.151100
     26 C25         -8.0520     7.3950     7.9430 c          1 5Z1       0.605700
     27 O26         -7.9600     8.6120     8.0340 o          1 5Z1      -0.569100
     28 C27         -8.8940     6.6360     8.9410 ca         1 5Z1      -0.115600
     29 C29        -10.6660     5.0370     9.4740 ca         1 5Z1      -0.076000
     30 C30        -10.5260     5.3120    10.8510 ca         1 5Z1      -0.154600
     31 C31         -9.5600     6.2550    11.2630 ca         1 5Z1      -0.076000
     32 C32         -8.7670     6.9230    10.3150 ca         1 5Z1      -0.095000
     33 C33        -11.3860     4.5800    11.8590 c          1 5Z1       0.590300
     34 O34        -11.7610     3.4340    11.6390 o          1 5Z1      -0.510100
     35 C35        -11.7770     5.2770    13.1420 ca         1 5Z1      -0.174600
     36 C36        -11.9650     4.5230    14.3220 ca         1 5Z1      -0.064000
     37 C37        -12.3410     5.1560    15.5190 ca         1 5Z1      -0.123000
     38 C38        -12.5450     6.5450    15.5500 ca         1 5Z1      -0.082000
     39 C39        -12.3780     7.3010    14.3780 ca         1 5Z1      -0.123000
     40 C40        -12.0010     6.6720    13.1790 ca         1 5Z1      -0.064000
     41 C41         -2.5940     2.3530     9.0200 ca         1 5Z1       0.334000
     42 C42         -2.0680     3.0070     7.8810 ca         1 5Z1      -0.178000
     43 C43         -2.6050     2.7670     6.6000 ca         1 5Z1      -0.026000
     44 C44         -3.6730     1.8690     6.4760 ca         1 5Z1       0.022400
     45 N45         -4.3170     1.4980     5.3170 nc         1 5Z1      -0.566100
     46 C46         -5.2230     0.5940     5.7480 cd         1 5Z1       0.475100
     47 C47         -6.0780    -0.1080     4.7930 cd         1 5Z1      -0.233600
     48 C48         -6.8960    -1.2580     5.1000 cd         1 5Z1      -0.089000
     49 C49         -7.6790    -1.8260     4.1140 cc         1 5Z1      -0.202400
     50 C50         -8.5660    -3.0270     4.3620 c3         1 5Z1      -0.032900
     51 C51         -7.7010    -1.3040     2.7220 c          1 5Z1       0.547200
     52 O52         -8.3960    -1.7890     1.8350 o          1 5Z1      -0.549000
     53 N53         -6.8520    -0.2060     2.4800 n          1 5Z1      -0.266000
     54 C54         -6.8170     0.3510     1.1060 c3         1 5Z1       0.075300
     55 C55         -6.0680     0.3570     3.4860 cc         1 5Z1       0.004600
     56 N56         -5.2230     0.4250     7.1650 na         1 5Z1      -0.176600
     57 C57         -6.3090     0.0480     8.1040 c3         1 5Z1       0.081600
     58 C58         -7.4720     1.0760     8.2590 c6         1 5Z1      -0.084700
     59 C59         -8.3810     1.1710     6.9990 c6         1 5Z1      -0.112900
     60 C60         -9.5980     2.0940     7.2470 c6         1 5Z1       0.155100
     61 O61        -10.3200     1.6600     8.4170 os         1 5Z1      -0.438000
     62 C62         -9.5380     1.6990     9.6290 c6         1 5Z1       0.155100
     63 C63         -8.3360     0.7350     9.5050 c6         1 5Z1      -0.112900
     64 C64         -4.1870     1.2380     7.5680 ca         1 5Z1      -0.046200
     65 C65         -3.6700     1.4530     8.8590 ca         1 5Z1      -0.199000
     66 H1          -7.3840     4.8160     5.9130 h1         1 5Z1       0.055200
     67 H2          -7.7770     4.7280     7.6210 h1         1 5Z1       0.055200
     68 H3          -3.2230     7.6570     9.3680 h1         1 5Z1       0.050200
     69 H4          -1.9330     8.7020     8.7510 h1         1 5Z1       0.050200
     70 H5          -0.6540     5.4330     6.2900 h1         1 5Z1       0.032200
     71 H6          -2.1650     5.5840     5.3530 h1         1 5Z1       0.032200
     72 H7           0.5470     4.6610     4.2170 h1         1 5Z1       0.038700
     73 H8          -0.9630     4.8140     3.2850 h1         1 5Z1       0.038700
     74 H9           1.8580     6.6450     0.7120 ha         1 5Z1       0.257000
     75 H10        -10.0110     5.4950     7.4700 ha         1 5Z1       0.126000
     76 H11         -1.1680     1.6950    12.0200 h1         1 5Z1       0.036367
     77 H12         -2.9440     1.5550    11.9210 h1         1 5Z1       0.036367
     78 H13         -1.8970     0.5540    10.8770 h1         1 5Z1       0.036367
     79 H14         -1.5280     4.0040    11.8250 h1         1 5Z1       0.056200
     80 H15         -0.8530     4.3560    10.2410 h1         1 5Z1       0.056200
     81 H16         -2.5400     6.0170    10.7800 h1         1 5Z1       0.048200
     82 H17         -3.1230     5.0280     9.4300 h1         1 5Z1       0.048200
     83 H18         -5.1540     6.4070    10.8750 h1         1 5Z1       0.051200
     84 H19         -6.0200     5.1450    11.7660 h1         1 5Z1       0.051200
     85 H20         -6.9650     4.8250     9.6860 h1         1 5Z1       0.036700
     86 H21         -5.6220     3.6730     9.5880 h1         1 5Z1       0.036700
     87 H22         -5.5240     3.8320     7.2100 h1         1 5Z1       0.063700
     88 H23         -5.0220     5.3510     6.4550 h1         1 5Z1       0.063700
     89 H24         -6.5020     6.7950     4.9500 h1         1 5Z1       0.075700
     90 H25         -7.6380     8.1110     5.2770 h1         1 5Z1       0.075700
     91 H26         -5.2540     7.3010     7.7270 hn         1 5Z1       0.337500
     92 H27         -3.3820     9.4970     6.9300 h1         1 5Z1       0.057200
     93 H28         -4.2500     9.6590     8.4620 h1         1 5Z1       0.057200
     94 H29         -0.6810     7.9100     6.6970 h1         1 5Z1       0.041700
     95 H30         -2.1970     8.0290     5.7650 h1         1 5Z1       0.041700
     96 H31        -11.4060     4.3160     9.1330 ha         1 5Z1       0.133000
     97 H32         -9.4130     6.4730    12.3190 ha         1 5Z1       0.133000
     98 H33         -8.0360     7.6560    10.6500 ha         1 5Z1       0.126000
     99 H34        -11.8110     3.4460    14.3140 ha         1 5Z1       0.125500
    100 H35        -12.4760     4.5680    16.4240 ha         1 5Z1       0.119000
    101 H36        -12.8380     7.0330    16.4770 ha         1 5Z1       0.116000
    102 H37        -12.5460     8.3760    14.3980 ha         1 5Z1       0.119000
    103 H38        -11.8970     7.2730    12.2770 ha         1 5Z1       0.125500
    104 H39         -1.2350     3.6940     7.9870 ha         1 5Z1       0.111000
    105 H40         -2.1940     3.2550     5.7210 ha         1 5Z1       0.125000
    106 H41         -6.8910    -1.7220     6.0750 ha         1 5Z1       0.190000
    107 H42         -8.5090    -3.3620     5.4050 hc         1 5Z1       0.048700
    108 H43         -9.6160    -2.7920     4.1490 hc         1 5Z1       0.048700
    109 H44         -8.2720    -3.8720     3.7280 hc         1 5Z1       0.048700
    110 H45         -6.1100     1.1870     1.0390 h1         1 5Z1       0.057033
    111 H46         -6.5060    -0.4290     0.3990 h1         1 5Z1       0.057033
    112 H47         -7.8160     0.7100     0.8280 h1         1 5Z1       0.057033
    113 H48         -5.4850     1.1990     3.1250 h4         1 5Z1       0.208000
    114 H49         -6.7200    -0.9350     7.8690 h1         1 5Z1       0.065200
    115 H50         -5.8590    -0.0810     9.0940 h1         1 5Z1       0.065200
    116 H51         -7.0040     2.0560     8.4270 hc         1 5Z1       0.057700
    117 H52         -7.8140     1.5600     6.1440 hc         1 5Z1       0.051450
    118 H53         -8.7430     0.1730     6.7160 hc         1 5Z1       0.051450
    119 H54         -9.2680     3.1310     7.3910 h1         1 5Z1       0.045700
    120 H55        -10.2730     2.0680     6.3800 h1         1 5Z1       0.045700
    121 H56        -10.1730     1.4010    10.4750 h1         1 5Z1       0.045700
    122 H57         -9.1860     2.7250     9.8070 h1         1 5Z1       0.045700
    123 H58         -8.7070    -0.2970     9.4380 hc         1 5Z1       0.051450
    124 H59         -7.7270     0.7920    10.4170 hc         1 5Z1       0.051450
    125 H60         -4.0900     0.9490     9.7210 ha         1 5Z1       0.121000
@<TRIPOS>BOND
     1     1    16 1   
     2     1    17 1   
     3     1    66 1   
     4     1    67 1   
     5     2    18 1   
     6     2    19 2   
     7     2    20 1   
     8     3    21 1   
     9     3    22 1   
    10     3    68 1   
    11     3    69 1   
    12     4    23 1   
    13     4    24 1   
    14     4    70 1   
    15     4    71 1   
    16     5    24 1   
    17     5    25 1   
    18     5    72 1   
    19     5    73 1   
    20     6    25 3   
    21     6    74 1   
    22     7    28 ar  
    23     7    29 ar  
    24     7    75 1   
    25     8     9 1   
    26     8    76 1   
    27     8    77 1   
    28     8    78 1   
    29     9    10 1   
    30     9    41 1   
    31    10    11 1   
    32    10    79 1   
    33    10    80 1   
    34    11    12 1   
    35    11    81 1   
    36    11    82 1   
    37    12    13 1   
    38    13    14 1   
    39    13    83 1   
    40    13    84 1   
    41    14    15 1   
    42    14    85 1   
    43    14    86 1   
    44    15    16 1   
    45    16    87 1   
    46    16    88 1   
    47    17    18 1   
    48    17    26 1   
    49    18    89 1   
    50    18    90 1   
    51    20    21 1   
    52    20    91 1   
    53    21    92 1   
    54    21    93 1   
    55    22    23 1   
    56    23    94 1   
    57    23    95 1   
    58    26    27 2   
    59    26    28 1   
    60    28    32 ar  
    61    29    30 ar  
    62    29    96 1   
    63    30    31 ar  
    64    30    33 1   
    65    31    32 ar  
    66    31    97 1   
    67    32    98 1   
    68    33    34 2   
    69    33    35 1   
    70    35    36 ar  
    71    35    40 ar  
    72    36    37 ar  
    73    36    99 1   
    74    37    38 ar  
    75    37   100 1   
    76    38    39 ar  
    77    38   101 1   
    78    39    40 ar  
    79    39   102 1   
    80    40   103 1   
    81    41    42 ar  
    82    41    65 ar  
    83    42    43 ar  
    84    42   104 1   
    85    43    44 ar  
    86    43   105 1   
    87    44    45 1   
    88    44    64 ar  
    89    45    46 2   
    90    46    47 1   
    91    46    56 1   
    92    47    48 1   
    93    47    55 2   
    94    48    49 2   
    95    48   106 1   
    96    49    50 1   
    97    49    51 1   
    98    50   107 1   
    99    50   108 1   
   100    50   109 1   
   101    51    52 2   
   102    51    53 1   
   103    53    54 1   
   104    53    55 1   
   105    54   110 1   
   106    54   111 1   
   107    54   112 1   
   108    55   113 1   
   109    56    57 1   
   110    56    64 1   
   111    57    58 1   
   112    57   114 1   
   113    57   115 1   
   114    58    59 1   
   115    58    63 1   
   116    58   116 1   
   117    59    60 1   
   118    59   117 1   
   119    59   118 1   
   120    60    61 1   
   121    60   119 1   
   122    60   120 1   
   123    61    62 1   
   124    62    63 1   
   125    62   121 1   
   126    62   122 1   
   127    63   123 1   
   128    63   124 1   
   129    64    65 ar  
   130    65   125 1   
@<TRIPOS>SUBSTRUCTURE
     1 5Z1         1 TEMP              0 ****  ****    0 ROOT
