@<TRIPOS>MOLECULE
5Z1
  125   130     1     0     0
SMALL
abcg2


@<TRIPOS>ATOM
      1 C10         -7.2660     5.1880     6.4810 c3         1 5Z1       0.070000
      2 C13         -6.0510     8.4900     5.5790 c          1 5Z1       0.599100
      3 C17         -3.4830     8.9480     8.2140 c3         1 5Z1       0.148600
      4 C20         -1.1900     6.4520     6.8450 c3         1 5Z1       0.153600
      5 C22          0.4560     5.2770     5.6750 c3         1 5Z1       0.249700
      6 C24          2.2910     5.5200     3.7670 c1         1 5Z1      -0.211000
      7 C28         -9.9210     5.7110     8.2810 ca         1 5Z1      -0.095000
      8 C01         -2.8030     1.7260    11.2060 c3         1 5Z1       0.200100
      9 N02         -2.3130     2.5120    10.0980 nh         1 5Z1      -0.795400
     10 C03         -1.9290     3.8840    10.3990 c3         1 5Z1       0.211800
     11 C04         -3.0220     4.9100    10.1480 c3         1 5Z1       0.120600
     12 O05         -4.1620     4.5400    10.8880 os         1 5Z1      -0.463000
     13 C06         -5.3730     5.1560    10.5280 c3         1 5Z1       0.168600
     14 C07         -5.9890     4.6600     9.2310 c3         1 5Z1       0.109600
     15 O08         -5.4670     5.3690     8.1250 os         1 5Z1      -0.457000
     16 C09         -5.8330     4.8570     6.8700 c3         1 5Z1       0.132600
     17 N11         -7.5270     6.6170     6.3960 n          1 5Z1      -0.408800
     18 C12         -6.9920     7.3350     5.2570 c3         1 5Z1       0.013000
     19 O14         -5.9450     9.4190     4.7930 o          1 5Z1      -0.605100
     20 N15         -5.3200     8.3880     6.6960 ns         1 5Z1      -0.495900
     21 C16         -4.3880     9.4210     7.0900 c3         1 5Z1       0.067000
     22 O18         -2.8120     7.7440     7.9430 os         1 5Z1      -0.463000
     23 C19         -1.8430     7.8170     6.9280 c3         1 5Z1       0.152600
     24 O21         -0.2090     6.5030     5.8360 os         1 5Z1      -0.449000
     25 C23          1.4590     5.4130     4.6270 c1         1 5Z1      -0.151100
     26 C25         -8.2890     7.3380     7.2490 c          1 5Z1       0.605700
     27 O26         -8.4590     8.5380     7.0950 o          1 5Z1      -0.569100
     28 C27         -8.9100     6.6560     8.4260 ca         1 5Z1      -0.115600
     29 C29        -10.4930     5.1280     9.3990 ca         1 5Z1      -0.076000
     30 C30        -10.0870     5.5070    10.6750 ca         1 5Z1      -0.154600
     31 C31         -9.1000     6.4810    10.8180 ca         1 5Z1      -0.076000
     32 C32         -8.5150     7.0510     9.6990 ca         1 5Z1      -0.095000
     33 C33        -10.6600     4.8000    11.8550 c          1 5Z1       0.590300
     34 O34        -10.8940     3.6100    11.7930 o          1 5Z1      -0.510100
     35 C35        -10.9380     5.5700    13.0940 ca         1 5Z1      -0.174600
     36 C36        -10.9370     4.9040    14.3210 ca         1 5Z1      -0.064000
     37 C37        -11.2360     5.5870    15.4870 ca         1 5Z1      -0.123000
     38 C38        -11.5640     6.9380    15.4380 ca         1 5Z1      -0.082000
     39 C39        -11.5860     7.6030    14.2200 ca         1 5Z1      -0.123000
     40 C40        -11.2660     6.9250    13.0530 ca         1 5Z1      -0.064000
     41 C41         -2.8190     2.2340     8.8370 ca         1 5Z1       0.334000
     42 C42         -2.2710     2.8880     7.7020 ca         1 5Z1      -0.178000
     43 C43         -2.7370     2.6700     6.4250 ca         1 5Z1      -0.026000
     44 C44         -3.7810     1.7650     6.2390 ca         1 5Z1       0.022400
     45 N45         -4.4550     1.3840     5.1040 nc         1 5Z1      -0.566100
     46 C46         -5.3530     0.5270     5.5100 cd         1 5Z1       0.475100
     47 C47         -6.3220    -0.1140     4.6220 cd         1 5Z1      -0.233600
     48 C48         -6.5020    -1.5200     4.5460 cd         1 5Z1      -0.089000
     49 C49         -7.3910    -2.0770     3.6830 cc         1 5Z1      -0.202400
     50 C50         -7.5960    -3.5530     3.5720 c3         1 5Z1      -0.032900
     51 C51         -8.1820    -1.2350     2.8110 c          1 5Z1       0.547200
     52 O52         -9.0050    -1.6570     2.0060 o          1 5Z1      -0.549000
     53 N53         -7.9600     0.1320     2.9250 n          1 5Z1      -0.266000
     54 C54         -8.7460     1.0090     2.0690 c3         1 5Z1       0.075300
     55 C55         -7.0680     0.6620     3.7910 cc         1 5Z1       0.004600
     56 N56         -5.3050     0.3030     6.8640 na         1 5Z1      -0.176600
     57 C57         -6.2680    -0.3940     7.6950 c3         1 5Z1       0.081600
     58 C58         -7.2690     0.5420     8.3670 c6         1 5Z1      -0.084700
     59 C59         -8.1350     1.2970     7.3640 c6         1 5Z1      -0.112900
     60 C60         -9.1920     2.1110     8.0900 c6         1 5Z1       0.155100
     61 O61         -9.9940     1.3140     8.9310 os         1 5Z1      -0.438000
     62 C62         -9.2310     0.6620     9.9210 c6         1 5Z1       0.155100
     63 C63         -8.1690    -0.2450     9.3160 c6         1 5Z1      -0.112900
     64 C64         -4.3010     1.1000     7.3530 ca         1 5Z1      -0.046200
     65 C65         -3.8500     1.3110     8.6520 ca         1 5Z1      -0.199000
     66 H1          -7.4750     4.7330     5.5100 h1         1 5Z1       0.055200
     67 H2          -7.9570     4.7290     7.1810 h1         1 5Z1       0.055200
     68 H3          -4.0740     8.7660     9.1150 h1         1 5Z1       0.050200
     69 H4          -2.7770     9.7570     8.4440 h1         1 5Z1       0.050200
     70 H5          -0.7450     6.1860     7.8140 h1         1 5Z1       0.032200
     71 H6          -1.9500     5.6930     6.6160 h1         1 5Z1       0.032200
     72 H7           0.9460     4.9610     6.6070 h1         1 5Z1       0.038700
     73 H8          -0.2450     4.4750     5.4050 h1         1 5Z1       0.038700
     74 H9           3.0290     5.6180     3.0030 ha         1 5Z1       0.257000
     75 H10        -10.2540     5.4130     7.2940 ha         1 5Z1       0.126000
     76 H11         -2.2480     1.9920    12.1020 h1         1 5Z1       0.036367
     77 H12         -3.8690     1.8670    11.4170 h1         1 5Z1       0.036367
     78 H13         -2.6350     0.6630    11.0220 h1         1 5Z1       0.036367
     79 H14         -1.6220     3.9130    11.4450 h1         1 5Z1       0.056200
     80 H15         -1.0470     4.1810     9.8250 h1         1 5Z1       0.056200
     81 H16         -2.6560     5.9020    10.4460 h1         1 5Z1       0.048200
     82 H17         -3.2340     4.9610     9.0770 h1         1 5Z1       0.048200
     83 H18         -5.2810     6.2520    10.4940 h1         1 5Z1       0.051200
     84 H19         -6.0730     4.9230    11.3340 h1         1 5Z1       0.051200
     85 H20         -7.0760     4.7900     9.3020 h1         1 5Z1       0.036700
     86 H21         -5.8030     3.5830     9.1230 h1         1 5Z1       0.036700
     87 H22         -5.7150     3.7660     6.8330 h1         1 5Z1       0.063700
     88 H23         -5.1320     5.2760     6.1440 h1         1 5Z1       0.063700
     89 H24         -6.4430     6.6270     4.6330 h1         1 5Z1       0.075700
     90 H25         -7.7980     7.7380     4.6410 h1         1 5Z1       0.075700
     91 H26         -5.4660     7.6110     7.3240 hn         1 5Z1       0.337500
     92 H27         -3.8030     9.7320     6.2230 h1         1 5Z1       0.057200
     93 H28         -4.9160    10.3130     7.4430 h1         1 5Z1       0.057200
     94 H29         -1.0910     8.5850     7.1540 h1         1 5Z1       0.041700
     95 H30         -2.2840     8.0680     5.9550 h1         1 5Z1       0.041700
     96 H31        -11.2650     4.3810     9.2740 ha         1 5Z1       0.133000
     97 H32         -8.7620     6.7800    11.8010 ha         1 5Z1       0.133000
     98 H33         -7.7340     7.7910     9.8230 ha         1 5Z1       0.126000
     99 H34        -10.6880     3.8510    14.3640 ha         1 5Z1       0.125500
    100 H35        -11.2170     5.0680    16.4360 ha         1 5Z1       0.119000
    101 H36        -11.8050     7.4690    16.3490 ha         1 5Z1       0.116000
    102 H37        -11.8520     8.6510    14.1770 ha         1 5Z1       0.119000
    103 H38        -11.2980     7.4540    12.1090 ha         1 5Z1       0.125500
    104 H39         -1.4530     3.5820     7.8390 ha         1 5Z1       0.111000
    105 H40         -2.3010     3.1960     5.5840 ha         1 5Z1       0.125000
    106 H41         -5.9030    -2.1670     5.1770 ha         1 5Z1       0.190000
    107 H42         -6.9470    -4.0880     4.2620 hc         1 5Z1       0.048700
    108 H43         -8.6280    -3.8280     3.7960 hc         1 5Z1       0.048700
    109 H44         -7.3860    -3.9110     2.5620 hc         1 5Z1       0.048700
    110 H45         -8.4770     2.0400     2.2780 h1         1 5Z1       0.057033
    111 H46         -8.5490     0.7980     1.0200 h1         1 5Z1       0.057033
    112 H47         -9.8090     0.8760     2.2600 h1         1 5Z1       0.057033
    113 H48         -6.9860     1.7400     3.7950 h4         1 5Z1       0.208000
    114 H49         -6.7990    -1.1220     7.0830 h1         1 5Z1       0.065200
    115 H50         -5.7170    -0.9640     8.4480 h1         1 5Z1       0.065200
    116 H51         -6.7160     1.2790     8.9630 hc         1 5Z1       0.057700
    117 H52         -7.5330     1.9700     6.7480 hc         1 5Z1       0.051450
    118 H53         -8.6210     0.5880     6.6840 hc         1 5Z1       0.051450
    119 H54         -8.7030     2.9050     8.6750 h1         1 5Z1       0.045700
    120 H55         -9.8610     2.5980     7.3770 h1         1 5Z1       0.045700
    121 H56         -9.9280     0.0860    10.5320 h1         1 5Z1       0.045700
    122 H57         -8.7480     1.4000    10.5790 h1         1 5Z1       0.045700
    123 H58         -8.6520    -1.0650     8.7730 hc         1 5Z1       0.051450
    124 H59         -7.5820    -0.6940    10.1220 hc         1 5Z1       0.051450
    125 H60         -4.3140     0.8000     9.4840 ha         1 5Z1       0.121000
@<TRIPOS>BOND
     1     1    16 1   
     2     1    17 1   
     3     1    66 1   
     4     1    67 1   
     5     2    18 1   
     6     2    19 2   
     7     2    20 1   
     8     3    21 1   
     9     3    22 1   
    10     3    68 1   
    11     3    69 1   
    12     4    23 1   
    13     4    24 1   
    14     4    70 1   
    15     4    71 1   
    16     5    24 1   
    17     5    25 1   
    18     5    72 1   
    19     5    73 1   
    20     6    25 3   
    21     6    74 1   
    22     7    28 ar  
    23     7    29 ar  
    24     7    75 1   
    25     8     9 1   
    26     8    76 1   
    27     8    77 1   
    28     8    78 1   
    29     9    10 1   
    30     9    41 1   
    31    10    11 1   
    32    10    79 1   
    33    10    80 1   
    34    11    12 1   
    35    11    81 1   
    36    11    82 1   
    37    12    13 1   
    38    13    14 1   
    39    13    83 1   
    40    13    84 1   
    41    14    15 1   
    42    14    85 1   
    43    14    86 1   
    44    15    16 1   
    45    16    87 1   
    46    16    88 1   
    47    17    18 1   
    48    17    26 1   
    49    18    89 1   
    50    18    90 1   
    51    20    21 1   
    52    20    91 1   
    53    21    92 1   
    54    21    93 1   
    55    22    23 1   
    56    23    94 1   
    57    23    95 1   
    58    26    27 2   
    59    26    28 1   
    60    28    32 ar  
    61    29    30 ar  
    62    29    96 1   
    63    30    31 ar  
    64    30    33 1   
    65    31    32 ar  
    66    31    97 1   
    67    32    98 1   
    68    33    34 2   
    69    33    35 1   
    70    35    36 ar  
    71    35    40 ar  
    72    36    37 ar  
    73    36    99 1   
    74    37    38 ar  
    75    37   100 1   
    76    38    39 ar  
    77    38   101 1   
    78    39    40 ar  
    79    39   102 1   
    80    40   103 1   
    81    41    42 ar  
    82    41    65 ar  
    83    42    43 ar  
    84    42   104 1   
    85    43    44 ar  
    86    43   105 1   
    87    44    45 1   
    88    44    64 ar  
    89    45    46 2   
    90    46    47 1   
    91    46    56 1   
    92    47    48 1   
    93    47    55 2   
    94    48    49 2   
    95    48   106 1   
    96    49    50 1   
    97    49    51 1   
    98    50   107 1   
    99    50   108 1   
   100    50   109 1   
   101    51    52 2   
   102    51    53 1   
   103    53    54 1   
   104    53    55 1   
   105    54   110 1   
   106    54   111 1   
   107    54   112 1   
   108    55   113 1   
   109    56    57 1   
   110    56    64 1   
   111    57    58 1   
   112    57   114 1   
   113    57   115 1   
   114    58    59 1   
   115    58    63 1   
   116    58   116 1   
   117    59    60 1   
   118    59   117 1   
   119    59   118 1   
   120    60    61 1   
   121    60   119 1   
   122    60   120 1   
   123    61    62 1   
   124    62    63 1   
   125    62   121 1   
   126    62   122 1   
   127    63   123 1   
   128    63   124 1   
   129    64    65 ar  
   130    65   125 1   
@<TRIPOS>SUBSTRUCTURE
     1 5Z1         1 TEMP              0 ****  ****    0 ROOT
