@<TRIPOS>MOLECULE
5Z2
   27    27     1     0     0
SMALL
No Charge or Current Charge


@<TRIPOS>ATOM
      1 C08         10.5110    37.0730    42.4820 cc         1 5Z2      -0.181300
      2 C10          9.7830    39.5080    41.9840 c3         1 5Z2      -0.059400
      3 C13          6.0000    38.3050    41.7240 c3         1 5Z2      -0.084100
      4 N01         10.3130    34.6960    45.3300 nv         1 5Z2      -1.038900
      5 C02         10.3200    35.4330    44.2170 cc         1 5Z2       0.654300
      6 N03          9.9490    34.8870    43.1000 nd         1 5Z2      -0.664000
      7 C04         10.0400    35.8210    42.0480 cd         1 5Z2       0.277500
      8 C05          9.6540    35.4980    40.5910 c          1 5Z2       0.628500
      9 O06          9.7330    36.3430    39.7090 o          1 5Z2      -0.702500
     10 O07          9.2610    34.3640    40.3310 o          1 5Z2      -0.702500
     11 C09         10.7940    38.3590    41.7300 c3         1 5Z2      -0.001100
     12 C11          8.3540    39.3000    41.4210 c3         1 5Z2      -0.070400
     13 C12          7.4370    38.3900    42.2730 c3         1 5Z2      -0.073400
     14 S14         10.8370    37.0730    44.1980 ss         1 5Z2      -0.277400
     15 H1           9.7270    39.7210    43.0580 hc         1 5Z2       0.018200
     16 H2           5.3880    37.6510    42.3560 hc         1 5Z2       0.023367
     17 H3           5.5320    39.2960    41.7030 hc         1 5Z2       0.023367
     18 H4           5.9970    37.8980    40.7060 hc         1 5Z2       0.023367
     19 H5          10.2540    33.6950    45.1900 hn         1 5Z2       0.447500
     20 H6          10.8800    35.0220    46.1030 hn         1 5Z2       0.447500
     21 H8          10.9060    38.2070    40.6540 hc         1 5Z2       0.063700
     22 H9          11.7790    38.7220    42.0500 hc         1 5Z2       0.063700
     23 H10          8.4170    38.9090    40.3980 hc         1 5Z2       0.039200
     24 H11          7.4030    38.7690    43.3020 hc         1 5Z2       0.042200
     25 H12          7.8460    37.3770    42.3190 hc         1 5Z2       0.042200
     26 H13         10.1940    40.4120    41.5190 hc         1 5Z2       0.018200
     27 H14          7.8770    40.2860    41.3450 hc         1 5Z2       0.039200
@<TRIPOS>BOND
     1     1     7 2   
     2     1    11 1   
     3     1    14 1   
     4     2    11 1   
     5     2    12 1   
     6     2    15 1   
     7     2    26 1   
     8     3    13 1   
     9     3    16 1   
    10     3    17 1   
    11     3    18 1   
    12     4     5 1   
    13     4    19 1   
    14     4    20 1   
    15     5     6 2   
    16     5    14 1   
    17     6     7 1   
    18     7     8 1   
    19     8     9 1   
    20     8    10 1   
    21    11    21 1   
    22    11    22 1   
    23    12    13 1   
    24    12    23 1   
    25    12    27 1   
    26    13    24 1   
    27    13    25 1   
@<TRIPOS>SUBSTRUCTURE
     1 5Z2         1 TEMP              0 ****  ****    0 ROOT
