@<TRIPOS>MOLECULE
5Z2
   27    27     1     0     0
SMALL
abcg2


@<TRIPOS>ATOM
      1 C08         10.5530    37.1470    42.3700 cc         1 5Z2      -0.181300
      2 C10          9.7770    39.5300    41.9210 c3         1 5Z2      -0.059400
      3 C13          6.0960    38.1710    41.9520 c3         1 5Z2      -0.084100
      4 N01          9.9750    34.7390    45.2360 nv         1 5Z2      -1.038900
      5 C02         10.1550    35.4380    44.0790 cc         1 5Z2       0.654300
      6 N03          9.9090    34.9830    42.8980 nd         1 5Z2      -0.664000
      7 C04         10.1260    35.9330    41.9200 cd         1 5Z2       0.277500
      8 C05          9.8370    35.5550    40.4730 c          1 5Z2       0.628500
      9 O06         10.2520    36.3300    39.5870 o          1 5Z2      -0.702500
     10 O07          9.2020    34.5010    40.3030 o          1 5Z2      -0.702500
     11 C09         10.8290    38.4410    41.6800 c3         1 5Z2      -0.001100
     12 C11          8.3630    39.1810    41.4510 c3         1 5Z2      -0.070400
     13 C12          7.5060    38.4260    42.4650 c3         1 5Z2      -0.073400
     14 S14         10.6780    37.0970    44.1090 ss         1 5Z2      -0.277400
     15 H1           9.7550    39.8070    42.9800 hc         1 5Z2       0.018200
     16 H2           5.4900    37.6410    42.6880 hc         1 5Z2       0.023367
     17 H3           5.5850    39.1070    41.7150 hc         1 5Z2       0.023367
     18 H4           6.1120    37.5680    41.0410 hc         1 5Z2       0.023367
     19 H5           9.9280    33.7390    45.1120 hn         1 5Z2       0.447500
     20 H6          10.5390    35.0050    46.0280 hn         1 5Z2       0.447500
     21 H8          10.8990    38.2360    40.6150 hc         1 5Z2       0.063700
     22 H9          11.8040    38.8250    41.9980 hc         1 5Z2       0.063700
     23 H10          8.4200    38.6030    40.5220 hc         1 5Z2       0.039200
     24 H11          7.4600    39.0060    43.3920 hc         1 5Z2       0.042200
     25 H12          7.9760    37.4760    42.7250 hc         1 5Z2       0.042200
     26 H13         10.1190    40.4220    41.3890 hc         1 5Z2       0.018200
     27 H14          7.8400    40.1070    41.1930 hc         1 5Z2       0.039200
@<TRIPOS>BOND
     1     1     7 2   
     2     1    11 1   
     3     1    14 1   
     4     2    11 1   
     5     2    12 1   
     6     2    15 1   
     7     2    26 1   
     8     3    13 1   
     9     3    16 1   
    10     3    17 1   
    11     3    18 1   
    12     4     5 1   
    13     4    19 1   
    14     4    20 1   
    15     5     6 2   
    16     5    14 1   
    17     6     7 1   
    18     7     8 1   
    19     8     9 1   
    20     8    10 1   
    21    11    21 1   
    22    11    22 1   
    23    12    13 1   
    24    12    23 1   
    25    12    27 1   
    26    13    24 1   
    27    13    25 1   
@<TRIPOS>SUBSTRUCTURE
     1 5Z2         1 TEMP              0 ****  ****    0 ROOT
