@<TRIPOS>MOLECULE
5Z3
   41    43     1     0     0
SMALL
No Charge or Current Charge


@<TRIPOS>ATOM
      1 C23        110.3830    -6.3450   108.1350 cc         1 5Z3      -0.353200
      2 C5         109.0960    -2.9710   110.7110 c6         1 5Z3       0.088000
      3 C10        105.3280    -3.6840   110.9630 ca         1 5Z3       0.344000
      4 C9         108.7450    -5.4490   110.6590 c6         1 5Z3       0.088000
      5 C8         107.2460    -5.2140   110.3170 c6         1 5Z3       0.218300
      6 C6         107.7320    -3.0050   111.4680 c6         1 5Z3       0.218300
      7 C1         111.2870    -5.5980   108.8710 cd         1 5Z3       0.053400
      8 C11        104.8100    -2.9890   112.0700 ca         1 5Z3      -0.160000
      9 C12        103.4270    -2.7830   112.1990 ca         1 5Z3      -0.061000
     10 C13        102.5400    -3.2670   111.2240 ca         1 5Z3       0.111000
     11 C14        103.0330    -3.9710   110.0990 ca         1 5Z3      -0.131300
     12 C15        104.4330    -4.1690   109.9880 ca         1 5Z3      -0.146000
     13 C18        113.1070    -6.9060   107.8650 c          1 5Z3       0.617000
     14 C2         110.9330    -4.4310   109.7750 c          1 5Z3       0.594300
     15 C21        110.8080    -7.4310   107.2500 c          1 5Z3       0.586200
     16 C24        102.0790    -4.5080   109.0180 c3         1 5Z3       0.348300
     17 F25        101.1880    -5.3890   109.5270 f          1 5Z3      -0.107667
     18 F26        101.3710    -3.5140   108.4330 f          1 5Z3      -0.107667
     19 F27        102.7220    -5.1550   108.0180 f          1 5Z3      -0.107667
     20 N17        112.6240    -5.9090   108.6580 ns         1 5Z3      -0.510600
     21 N20        112.1540    -7.6150   107.2130 ns         1 5Z3      -0.469500
     22 N4         109.5990    -4.2980   110.2340 n          1 5Z3      -0.402800
     23 N7         106.7210    -3.9030   110.8210 nh         1 5Z3      -0.846400
     24 O19        114.2950    -7.1340   107.7500 o          1 5Z3      -0.543000
     25 O22        110.0430    -8.1130   106.5920 o          1 5Z3      -0.516000
     26 O3         111.7800    -3.6050   110.0980 o          1 5Z3      -0.568100
     27 Cl16       100.8160    -2.9670   111.4590 cl         1 5Z3      -0.179000
     28 H1         109.3190    -6.1470   108.1190 ha         1 5Z3       0.228000
     29 H2         109.8440    -2.5000   111.3640 h1         1 5Z3       0.069200
     30 H3         108.9810    -2.3210   109.8330 h1         1 5Z3       0.069200
     31 H4         109.0840    -6.4050   110.2450 h1         1 5Z3       0.069200
     32 H5         108.8350    -5.5560   111.7490 h1         1 5Z3       0.069200
     33 H6         107.1330    -5.2600   109.2240 h1         1 5Z3       0.058200
     34 H7         106.6600    -6.0440   110.7400 h1         1 5Z3       0.058200
     35 H8         107.3520    -1.9740   111.5280 h1         1 5Z3       0.058200
     36 H9         107.9120    -3.3420   112.5000 h1         1 5Z3       0.058200
     37 H10        105.4710    -2.6160   112.8460 ha         1 5Z3       0.121000
     38 H11        103.0390    -2.2460   113.0610 ha         1 5Z3       0.134000
     39 H12        104.8400    -4.6930   109.1300 ha         1 5Z3       0.134000
     40 H13        113.3470    -5.3710   109.1280 hn         1 5Z3       0.469000
     41 H14        112.4850    -8.3550   106.6160 hn         1 5Z3       0.347500
@<TRIPOS>BOND
     1     1     7 2   
     2     1    15 1   
     3     1    28 1   
     4     2     6 1   
     5     2    22 1   
     6     2    29 1   
     7     2    30 1   
     8     3     8 ar  
     9     3    12 ar  
    10     3    23 1   
    11     4     5 1   
    12     4    22 1   
    13     4    31 1   
    14     4    32 1   
    15     5    23 1   
    16     5    33 1   
    17     5    34 1   
    18     6    23 1   
    19     6    35 1   
    20     6    36 1   
    21     7    14 1   
    22     7    20 1   
    23     8     9 ar  
    24     8    37 1   
    25     9    10 ar  
    26     9    38 1   
    27    10    11 ar  
    28    10    27 1   
    29    11    12 ar  
    30    11    16 1   
    31    12    39 1   
    32    13    20 1   
    33    13    21 1   
    34    13    24 2   
    35    14    22 1   
    36    14    26 2   
    37    15    21 1   
    38    15    25 2   
    39    16    17 1   
    40    16    18 1   
    41    16    19 1   
    42    20    40 1   
    43    21    41 1   
@<TRIPOS>SUBSTRUCTURE
     1 5Z3         1 TEMP              0 ****  ****    0 ROOT
