@<TRIPOS>MOLECULE
5Z3
   41    43     1     0     0
SMALL
abcg2


@<TRIPOS>ATOM
      1 C23        110.6180    -5.8570   107.4600 cc         1 5Z3      -0.353200
      2 C5         109.0420    -3.0020   110.6750 c6         1 5Z3       0.088000
      3 C10        105.4520    -3.7090   111.0140 ca         1 5Z3       0.344000
      4 C9         108.6560    -5.4210   110.2330 c6         1 5Z3       0.088000
      5 C8         107.2090    -5.0560   109.9510 c6         1 5Z3       0.218300
      6 C6         107.8260    -3.2560   111.5520 c6         1 5Z3       0.218300
      7 C1         111.0980    -5.4780   108.6620 cd         1 5Z3       0.053400
      8 C11        104.9830    -2.8760   112.0490 ca         1 5Z3      -0.160000
      9 C12        103.6290    -2.6450   112.2180 ca         1 5Z3      -0.061000
     10 C13        102.6920    -3.2320   111.3800 ca         1 5Z3       0.111000
     11 C14        103.1280    -4.0660   110.3490 ca         1 5Z3      -0.131300
     12 C15        104.4860    -4.2970   110.1740 ca         1 5Z3      -0.146000
     13 C18        112.7010    -7.2870   108.7350 c          1 5Z3       0.617000
     14 C2         110.6490    -4.2140   109.3560 c          1 5Z3       0.594300
     15 C21        111.1700    -7.0180   106.8000 c          1 5Z3       0.586200
     16 C24        102.1590    -4.7210   109.3990 c3         1 5Z3       0.348300
     17 F25        101.3070    -5.5640   110.0290 f          1 5Z3      -0.107667
     18 F26        101.3930    -3.8220   108.7400 f          1 5Z3      -0.107667
     19 F27        102.7820    -5.4520   108.4530 f          1 5Z3      -0.107667
     20 N17        112.1030    -6.1700   109.2790 ns         1 5Z3      -0.510600
     21 N20        112.1910    -7.6510   107.5110 ns         1 5Z3      -0.469500
     22 N4         109.5080    -4.2480   110.0510 n          1 5Z3      -0.402800
     23 N7         106.7850    -3.9540   110.8130 nh         1 5Z3      -0.846400
     24 O19        113.5980    -7.8930   109.2960 o          1 5Z3      -0.543000
     25 O22        110.8140    -7.4590   105.7140 o          1 5Z3      -0.516000
     26 O3         111.3580    -3.2130   109.2460 o          1 5Z3      -0.568100
     27 CL16       100.9970    -2.9070   111.6700 cl         1 5Z3      -0.179000
     28 H1         109.8210    -5.3140   106.9750 ha         1 5Z3       0.228000
     29 H2         109.8450    -2.5750   111.2750 h1         1 5Z3       0.069200
     30 H3         108.7930    -2.2870   109.8880 h1         1 5Z3       0.069200
     31 H4         108.9640    -6.2090   109.5530 h1         1 5Z3       0.069200
     32 H5         108.7630    -5.7930   111.2540 h1         1 5Z3       0.069200
     33 H6         107.0990    -4.7930   108.8930 h1         1 5Z3       0.058200
     34 H7         106.5920    -5.9380   110.1410 h1         1 5Z3       0.058200
     35 H8         107.4580    -2.2830   111.8660 h1         1 5Z3       0.058200
     36 H9         108.1130    -3.8040   112.4570 h1         1 5Z3       0.058200
     37 H10        105.6680    -2.4160   112.7450 ha         1 5Z3       0.121000
     38 H11        103.2940    -2.0060   113.0240 ha         1 5Z3       0.134000
     39 H12        104.7960    -4.9280   109.3590 ha         1 5Z3       0.134000
     40 H13        112.4580    -5.8680   110.1760 hn         1 5Z3       0.469000
     41 H14        112.6050    -8.4710   107.0850 hn         1 5Z3       0.347500
@<TRIPOS>BOND
     1     1     7 2   
     2     1    15 1   
     3     1    28 1   
     4     2     6 1   
     5     2    22 1   
     6     2    29 1   
     7     2    30 1   
     8     3     8 ar  
     9     3    12 ar  
    10     3    23 1   
    11     4     5 1   
    12     4    22 1   
    13     4    31 1   
    14     4    32 1   
    15     5    23 1   
    16     5    33 1   
    17     5    34 1   
    18     6    23 1   
    19     6    35 1   
    20     6    36 1   
    21     7    14 1   
    22     7    20 1   
    23     8     9 ar  
    24     8    37 1   
    25     9    10 ar  
    26     9    38 1   
    27    10    11 ar  
    28    10    27 1   
    29    11    12 ar  
    30    11    16 1   
    31    12    39 1   
    32    13    20 1   
    33    13    21 1   
    34    13    24 2   
    35    14    22 1   
    36    14    26 2   
    37    15    21 1   
    38    15    25 2   
    39    16    17 1   
    40    16    18 1   
    41    16    19 1   
    42    20    40 1   
    43    21    41 1   
@<TRIPOS>SUBSTRUCTURE
     1 5Z3         1 TEMP              0 ****  ****    0 ROOT
