@<TRIPOS>MOLECULE
5Z4
   87    91     1     0     0
SMALL
abcg2


@<TRIPOS>ATOM
      1 N1          21.9710    -6.7790    -5.9910 n          1 5Z4      -0.362800
      2 N3          14.3590   -13.0770    -7.7430 n          1 5Z4      -0.264000
      3 C4          24.0720    -6.4920    -7.1990 c          1 5Z4       0.591100
      4 C5          22.8530    -7.3770    -6.9680 c3         1 5Z4       0.009000
      5 C6          20.7830    -6.1080    -6.4780 c3         1 5Z4       0.156300
      6 C7          19.7560    -7.0530    -7.0540 ca         1 5Z4      -0.123300
      7 C8          18.8780    -6.5630    -8.0380 ca         1 5Z4      -0.130000
      8 C10         17.7250    -8.6450    -8.1050 ca         1 5Z4       0.085400
      9 C13         17.0880   -13.1860    -7.8590 cc         1 5Z4      -0.097000
     10 C15         17.0510   -15.6850    -8.0460 c3         1 5Z4      -0.035900
     11 C17         12.9050   -13.0280    -7.6760 c3         1 5Z4       0.072300
     12 C20         18.2110   -10.6760    -4.4360 c6         1 5Z4      -0.084700
     13 C21         16.6940   -10.7340    -4.2940 c6         1 5Z4      -0.111900
     14 C22         16.2860   -10.2690    -2.9040 c6         1 5Z4       0.157600
     15 C24         18.8520   -11.4470    -3.2850 c6         1 5Z4      -0.111900
     16 C26         19.6390    -8.3570    -6.6000 ca         1 5Z4      -0.098000
     17 C28         21.6130    -5.9890    -3.6980 cc         1 5Z4      -0.082000
     18 C33         20.5920    -6.6300    -3.0220 cc         1 5Z4       0.186000
     19 C32         19.9680    -6.0400    -1.9410 cd         1 5Z4       0.109400
     20 F2          18.9930    -6.6540    -1.3090 f          1 5Z4      -0.103000
     21 C31         20.3980    -4.7870    -1.5130 cd         1 5Z4       0.304900
     22 N5          19.7560    -4.2580    -0.4080 ne         1 5Z4      -0.147700
     23 N6          19.9520    -3.2580     0.1550 ne         1 5Z4       0.196000
     24 N7          20.1390    -2.3910     0.9100 n2         1 5Z4      -0.172400
     25 C30         21.4300    -4.1320    -2.1860 cd         1 5Z4       0.109400
     26 F1          21.8190    -2.9460    -1.7620 f          1 5Z4      -0.103000
     27 C29         22.0250    -4.7360    -3.2700 cc         1 5Z4       0.186000
     28 F           23.0050    -4.1140    -3.9040 f          1 5Z4      -0.087000
     29 C27         22.4370    -6.7100    -4.7390 c2         1 5Z4       0.616300
     30 O5          23.4940    -7.1850    -4.3730 o          1 5Z4      -0.545300
     31 O2          24.0350    -5.2890    -7.0090 o          1 5Z4      -0.595100
     32 N           25.1540    -7.1270    -7.6740 ns         1 5Z4      -0.479900
     33 C3          26.3710    -6.4170    -7.9310 c3         1 5Z4       0.040000
     34 C2          27.0730    -5.9900    -6.6540 c          1 5Z4       0.575100
     35 O1          26.8120    -6.4080    -5.5570 o          1 5Z4      -0.478000
     36 O           28.0310    -5.1200    -6.9200 os         1 5Z4      -0.447100
     37 C1          28.8460    -4.6550    -5.8300 c3         1 5Z4       0.169600
     38 C           29.8350    -3.6590    -6.3830 c3         1 5Z4      -0.099100
     39 C25         18.6170    -9.1280    -7.1390 ca         1 5Z4      -0.091200
     40 C9          17.8640    -7.3370    -8.5700 ca         1 5Z4      -0.039000
     41 N4          18.2300   -10.4240    -6.8990 na         1 5Z4      -0.170600
     42 C19         18.7100   -11.2070    -5.7760 c3         1 5Z4       0.079600
     43 C23         18.3190   -10.9370    -1.9550 c6         1 5Z4       0.157600
     44 O4          16.9130   -11.0150    -1.8840 os         1 5Z4      -0.441000
     45 C11         17.1490   -10.6570    -7.7060 cc         1 5Z4       0.517100
     46 N2          16.8280    -9.6250    -8.4440 nd         1 5Z4      -0.573100
     47 C12         16.4330   -11.9310    -7.7370 cc         1 5Z4      -0.260600
     48 C18         15.0730   -11.9320    -7.6940 cd         1 5Z4       0.020600
     49 C16         14.9460   -14.3340    -7.8420 c          1 5Z4       0.545200
     50 O3          14.2430   -15.3380    -7.8740 o          1 5Z4      -0.534000
     51 C14         16.3920   -14.3510    -7.9090 cd         1 5Z4      -0.193400
     52 H1          22.3090    -7.4730    -7.9090 h1         1 5Z4       0.088200
     53 H2          23.1420    -8.3850    -6.6670 h1         1 5Z4       0.088200
     54 H3          21.0780    -5.3750    -7.2320 h1         1 5Z4       0.059700
     55 H4          20.3370    -5.5330    -5.6640 h1         1 5Z4       0.059700
     56 H5          19.0020    -5.5450    -8.3870 ha         1 5Z4       0.116000
     57 H6          18.1700   -13.2160    -7.9360 ha         1 5Z4       0.187000
     58 H7          18.1330   -15.5770    -8.1120 hc         1 5Z4       0.051700
     59 H8          16.8280   -16.3290    -7.1940 hc         1 5Z4       0.051700
     60 H9          16.7070   -16.2090    -8.9390 hc         1 5Z4       0.051700
     61 H10         12.4660   -13.4770    -8.5640 h1         1 5Z4       0.060700
     62 H11         12.5460   -13.5630    -6.7990 h1         1 5Z4       0.060700
     63 H12         12.5880   -11.9920    -7.6110 h1         1 5Z4       0.060700
     64 H13         18.5170    -9.6280    -4.3420 hc         1 5Z4       0.047700
     65 H14         16.1990   -10.0990    -5.0330 hc         1 5Z4       0.057450
     66 H15         16.3430   -11.7580    -4.4610 hc         1 5Z4       0.057450
     67 H16         16.5260    -9.2000    -2.7960 h1         1 5Z4       0.041950
     68 H17         15.2090   -10.3790    -2.7610 h1         1 5Z4       0.041950
     69 H18         18.6350   -12.5150    -3.3870 hc         1 5Z4       0.057450
     70 H19         19.9390   -11.3350    -3.3030 hc         1 5Z4       0.057450
     71 H20         20.3160    -8.7660    -5.8610 ha         1 5Z4       0.117000
     72 H21         19.6490    -1.5020     0.7230 hn         1 5Z4       0.516400
     73 H22         25.1640    -8.1320    -7.7210 hn         1 5Z4       0.329500
     74 H23         26.1930    -5.5460    -8.5630 h1         1 5Z4       0.088700
     75 H24         27.0440    -7.0720    -8.4880 h1         1 5Z4       0.088700
     76 H25         29.3590    -5.5030    -5.3720 h1         1 5Z4       0.048200
     77 H26         28.2120    -4.1950    -5.0700 h1         1 5Z4       0.048200
     78 H27         30.4700    -3.3010    -5.5730 hc         1 5Z4       0.050033
     79 H28         30.4800    -4.1090    -7.1380 hc         1 5Z4       0.050033
     80 H29         29.3340    -2.7960    -6.8210 hc         1 5Z4       0.050033
     81 H30         17.2000    -6.9410    -9.3270 ha         1 5Z4       0.140000
     82 H31         18.4000   -12.2430    -5.9030 h1         1 5Z4       0.069200
     83 H32         19.8020   -11.2000    -5.8010 h1         1 5Z4       0.069200
     84 H33         18.7130   -11.5300    -1.1270 h1         1 5Z4       0.041950
     85 H34         18.6530    -9.8990    -1.8050 h1         1 5Z4       0.041950
     86 H35         14.5050   -11.0160    -7.6090 h4         1 5Z4       0.214000
     87 F3          20.2040    -7.8350    -3.4080 f          1 5Z4      -0.087000
@<TRIPOS>BOND
     1     1     4 1   
     2     1     5 1   
     3     1    29 1   
     4     2    11 1   
     5     2    48 1   
     6     2    49 1   
     7     3     4 1   
     8     3    31 2   
     9     3    32 1   
    10     4    52 1   
    11     4    53 1   
    12     5     6 1   
    13     5    54 1   
    14     5    55 1   
    15     6     7 ar  
    16     6    16 ar  
    17     7    40 ar  
    18     7    56 1   
    19     8    39 ar  
    20     8    40 ar  
    21     8    46 1   
    22     9    47 1   
    23     9    51 2   
    24     9    57 1   
    25    10    51 1   
    26    10    58 1   
    27    10    59 1   
    28    10    60 1   
    29    11    61 1   
    30    11    62 1   
    31    11    63 1   
    32    12    13 1   
    33    12    15 1   
    34    12    42 1   
    35    12    64 1   
    36    13    14 1   
    37    13    65 1   
    38    13    66 1   
    39    14    44 1   
    40    14    67 1   
    41    14    68 1   
    42    15    43 1   
    43    15    69 1   
    44    15    70 1   
    45    16    39 ar  
    46    16    71 1   
    47    17    18 1   
    48    17    27 1   
    49    17    29 2   
    50    18    19 2   
    51    18    87 1   
    52    19    20 1   
    53    19    21 1   
    54    21    22 2   
    55    21    25 1   
    56    22    23 1   
    57    23    24 2   
    58    24    72 1   
    59    25    26 1   
    60    25    27 2   
    61    27    28 1   
    62    29    30 1   
    63    32    33 1   
    64    32    73 1   
    65    33    34 1   
    66    33    74 1   
    67    33    75 1   
    68    34    35 2   
    69    34    36 1   
    70    36    37 1   
    71    37    38 1   
    72    37    76 1   
    73    37    77 1   
    74    38    78 1   
    75    38    79 1   
    76    38    80 1   
    77    39    41 1   
    78    40    81 1   
    79    41    42 1   
    80    41    45 1   
    81    42    82 1   
    82    42    83 1   
    83    43    44 1   
    84    43    84 1   
    85    43    85 1   
    86    45    46 2   
    87    45    47 1   
    88    47    48 2   
    89    48    86 1   
    90    49    50 2   
    91    49    51 1   
@<TRIPOS>SUBSTRUCTURE
     1 5Z4         1 TEMP              0 ****  ****    0 ROOT
