@<TRIPOS>MOLECULE
5Z4
   87    91     1     0     0
SMALL
No Charge or Current Charge


@<TRIPOS>ATOM
      1 N1          22.4590    -6.3910    -5.6450 n          1 5Z4      -0.362800
      2 N3          13.3180   -10.9800    -6.1700 n          1 5Z4      -0.264000
      3 C4          24.9210    -6.5470    -6.3950 c          1 5Z4       0.591100
      4 C5          23.7200    -7.1870    -5.6610 c3         1 5Z4       0.009000
      5 C6          21.7680    -6.2260    -6.9470 c3         1 5Z4       0.156300
      6 C7          20.3210    -6.6980    -6.9250 ca         1 5Z4      -0.123300
      7 C8          19.2600    -5.7660    -6.8210 ca         1 5Z4      -0.130000
      8 C10         17.6790    -7.5910    -6.7300 ca         1 5Z4       0.085400
      9 C13         15.8510   -11.9850    -6.8670 cc         1 5Z4      -0.097000
     10 C15         14.9130   -14.3460    -6.9860 c3         1 5Z4      -0.035900
     11 C17         11.9920   -10.4340    -5.7940 c3         1 5Z4       0.072300
     12 C20         19.3470   -11.3600    -5.2410 c6         1 5Z4      -0.084700
     13 C21         18.1140   -11.8060    -4.4020 c6         1 5Z4      -0.111900
     14 C22         18.5460   -12.2450    -2.9830 c6         1 5Z4       0.157600
     15 C24         20.4260   -12.4770    -5.2100 c6         1 5Z4      -0.111900
     16 C26         20.0390    -8.0800    -6.9580 ca         1 5Z4      -0.098000
     17 C28         20.8630    -5.8160    -3.9980 cc         1 5Z4      -0.082000
     18 C33         20.3730    -7.1660    -3.8050 cc         1 5Z4       0.186000
     19 C32         19.0910    -7.4110    -3.3530 cd         1 5Z4       0.109400
     20 F2          18.6440    -8.6710    -3.1700 f          1 5Z4      -0.103000
     21 C31         18.2070    -6.3140    -3.0660 cd         1 5Z4       0.304900
     22 N5          16.9890    -6.5540    -2.6430 ne         1 5Z4      -0.147700
     23 N6          15.9830    -6.3040    -3.5720 ne         1 5Z4       0.196000
     24 N7          14.8140    -6.4840    -3.1330 n2         1 5Z4      -0.172400
     25 C30         18.6830    -4.9610    -3.2150 cd         1 5Z4       0.109400
     26 F1          17.8510    -3.9390    -2.9190 f          1 5Z4      -0.103000
     27 C29         19.9660    -4.7230    -3.6650 cc         1 5Z4       0.186000
     28 F           20.3510    -3.4450    -3.8330 f          1 5Z4      -0.087000
     29 C27         22.1140    -5.5990    -4.5300 c2         1 5Z4       0.616300
     30 O5          22.6720    -4.5060    -4.4580 o          1 5Z4      -0.545300
     31 O2          24.8710    -5.4660    -6.9680 o          1 5Z4      -0.595100
     32 N           26.0790    -7.2950    -6.3720 ns         1 5Z4      -0.479900
     33 C3          27.3540    -6.8780    -7.0050 c3         1 5Z4       0.040000
     34 C2          28.2000    -5.9700    -6.0860 c          1 5Z4       0.575100
     35 O1          27.9940    -5.8110    -4.8880 o          1 5Z4      -0.478000
     36 O           29.2190    -5.3680    -6.7800 os         1 5Z4      -0.447100
     37 C1          30.0970    -4.4850    -6.0600 c3         1 5Z4       0.169600
     38 C           31.1280    -3.9400    -7.0610 c3         1 5Z4      -0.099100
     39 C25         18.6970    -8.4870    -6.8600 ca         1 5Z4      -0.091200
     40 C9          17.9250    -6.2120    -6.7190 ca         1 5Z4      -0.039000
     41 N4          18.1330    -9.7400    -6.8360 na         1 5Z4      -0.170600
     42 C19         19.0030   -10.9370    -6.7020 c3         1 5Z4       0.079600
     43 C23         20.7470   -12.8900    -3.7530 c6         1 5Z4       0.157600
     44 O4          19.5360   -13.2910    -3.0760 os         1 5Z4      -0.441000
     45 C11         16.7290    -9.5470    -6.6980 cc         1 5Z4       0.517100
     46 N2          16.4550    -8.2250    -6.6120 nd         1 5Z4      -0.573100
     47 C12         15.6850   -10.5710    -6.6250 cc         1 5Z4      -0.260600
     48 C18         14.4100   -10.1240    -6.3060 cd         1 5Z4       0.020600
     49 C16         13.4280   -12.3730    -6.3690 c          1 5Z4       0.545200
     50 O3          12.4660   -13.1240    -6.2430 o          1 5Z4      -0.534000
     51 C14         14.7860   -12.8550    -6.7460 cd         1 5Z4      -0.193400
     52 H1          23.5250    -8.1590    -6.1310 h1         1 5Z4       0.088200
     53 H2          24.0370    -7.3810    -4.6290 h1         1 5Z4       0.088200
     54 H3          22.3060    -6.7840    -7.7240 h1         1 5Z4       0.059700
     55 H4          21.8050    -5.1660    -7.2310 h1         1 5Z4       0.059700
     56 H5          19.4690    -4.6980    -6.8010 ha         1 5Z4       0.116000
     57 H6          16.7970   -12.3980    -7.1690 ha         1 5Z4       0.187000
     58 H7          15.9380   -14.6300    -7.2570 hc         1 5Z4       0.051700
     59 H8          14.6410   -14.9150    -6.0870 hc         1 5Z4       0.051700
     60 H9          14.2550   -14.6720    -7.8020 hc         1 5Z4       0.051700
     61 H10         11.2600   -10.6660    -6.5790 h1         1 5Z4       0.060700
     62 H11         11.6610   -10.8830    -4.8480 h1         1 5Z4       0.060700
     63 H12         12.0370    -9.3440    -5.6680 h1         1 5Z4       0.060700
     64 H13         19.7780   -10.4680    -4.7670 hc         1 5Z4       0.047700
     65 H14         17.3830   -10.9910    -4.3210 hc         1 5Z4       0.057450
     66 H15         17.6070   -12.6470    -4.8910 hc         1 5Z4       0.057450
     67 H16         18.9670   -11.3940    -2.4280 h1         1 5Z4       0.041950
     68 H17         17.6770   -12.6240    -2.4260 h1         1 5Z4       0.041950
     69 H18         20.0780   -13.3560    -5.7700 hc         1 5Z4       0.057450
     70 H19         21.3450   -12.1320    -5.7030 hc         1 5Z4       0.057450
     71 H20         20.8540    -8.7960    -7.0320 ha         1 5Z4       0.117000
     72 H21         14.1910    -6.2420    -3.9120 hn         1 5Z4       0.516400
     73 H22         26.0500    -8.1770    -5.8700 hn         1 5Z4       0.329500
     74 H23         27.1530    -6.3310    -7.9350 h1         1 5Z4       0.088700
     75 H24         27.9560    -7.7610    -7.2530 h1         1 5Z4       0.088700
     76 H25         30.6160    -5.0190    -5.2530 h1         1 5Z4       0.048200
     77 H26         29.5380    -3.6470    -5.6210 h1         1 5Z4       0.048200
     78 H27         31.8210    -3.2570    -6.5560 hc         1 5Z4       0.050033
     79 H28         31.7100    -4.7590    -7.5000 hc         1 5Z4       0.050033
     80 H29         30.6300    -3.3890    -7.8670 hc         1 5Z4       0.050033
     81 H30         17.1050    -5.5040    -6.6280 ha         1 5Z4       0.140000
     82 H31         18.6230   -11.7800    -7.2760 h1         1 5Z4       0.069200
     83 H32         19.9530   -10.7130    -7.1980 h1         1 5Z4       0.069200
     84 H33         21.4550   -13.7310    -3.7470 h1         1 5Z4       0.041950
     85 H34         21.2050   -12.0510    -3.2090 h1         1 5Z4       0.041950
     86 H35         14.1580    -9.0830    -6.1160 h4         1 5Z4       0.214000
     87 F3          21.1910    -8.2120    -4.0200 f          1 5Z4      -0.087000
@<TRIPOS>BOND
     1     1     4 1   
     2     1     5 1   
     3     1    29 1   
     4     2    11 1   
     5     2    48 1   
     6     2    49 1   
     7     3     4 1   
     8     3    31 2   
     9     3    32 1   
    10     4    52 1   
    11     4    53 1   
    12     5     6 1   
    13     5    54 1   
    14     5    55 1   
    15     6     7 ar  
    16     6    16 ar  
    17     7    40 ar  
    18     7    56 1   
    19     8    39 ar  
    20     8    40 ar  
    21     8    46 1   
    22     9    47 1   
    23     9    51 2   
    24     9    57 1   
    25    10    51 1   
    26    10    58 1   
    27    10    59 1   
    28    10    60 1   
    29    11    61 1   
    30    11    62 1   
    31    11    63 1   
    32    12    13 1   
    33    12    15 1   
    34    12    42 1   
    35    12    64 1   
    36    13    14 1   
    37    13    65 1   
    38    13    66 1   
    39    14    44 1   
    40    14    67 1   
    41    14    68 1   
    42    15    43 1   
    43    15    69 1   
    44    15    70 1   
    45    16    39 ar  
    46    16    71 1   
    47    17    18 1   
    48    17    27 1   
    49    17    29 2   
    50    18    19 2   
    51    18    87 1   
    52    19    20 1   
    53    19    21 1   
    54    21    22 2   
    55    21    25 1   
    56    22    23 1   
    57    23    24 2   
    58    24    72 1   
    59    25    26 1   
    60    25    27 2   
    61    27    28 1   
    62    29    30 1   
    63    32    33 1   
    64    32    73 1   
    65    33    34 1   
    66    33    74 1   
    67    33    75 1   
    68    34    35 2   
    69    34    36 1   
    70    36    37 1   
    71    37    38 1   
    72    37    76 1   
    73    37    77 1   
    74    38    78 1   
    75    38    79 1   
    76    38    80 1   
    77    39    41 1   
    78    40    81 1   
    79    41    42 1   
    80    41    45 1   
    81    42    82 1   
    82    42    83 1   
    83    43    44 1   
    84    43    84 1   
    85    43    85 1   
    86    45    46 2   
    87    45    47 1   
    88    47    48 2   
    89    48    86 1   
    90    49    50 2   
    91    49    51 1   
@<TRIPOS>SUBSTRUCTURE
     1 5Z4         1 TEMP              0 ****  ****    0 ROOT
