@<TRIPOS>MOLECULE
5Z5
   39    41     1     0     0
SMALL
bcc


@<TRIPOS>ATOM
      1 C17          6.5220    -2.3000    -0.4310 c3         1 5Z5       0.095300
      2 N3           5.2190    -1.6810    -0.4600 ns         1 5Z5      -0.572900
      3 C16          4.9880    -0.4690     0.0700 c          1 5Z5       0.708700
      4 O2           5.8790     0.1870     0.6020 o          1 5Z5      -0.615100
      5 C12          3.5950     0.0170    -0.0180 cc         1 5Z5      -0.252600
      6 C11          2.4040    -0.7270     0.1040 cc         1 5Z5      -0.047300
      7 C14          2.2680    -2.1920     0.3480 c3         1 5Z5      -0.035800
      8 C13          3.2390     1.3610    -0.1960 cd         1 5Z5       0.003400
      9 C15          4.0740     2.5680    -0.4290 c3         1 5Z5      -0.048800
     10 N2           1.9070     1.4300    -0.1980 na         1 5Z5      -0.122100
     11 C10          1.3490     0.1880    -0.0100 cd         1 5Z5      -0.174100
     12 C9          -0.0320    -0.0830     0.0740 cf         1 5Z5       0.076800
     13 C7          -1.1310     0.7190    -0.0230 cc         1 5Z5      -0.207400
     14 C5          -2.5070     0.2690     0.0970 ca         1 5Z5      -0.081800
     15 C4          -3.0730    -0.9740     0.3290 ca         1 5Z5      -0.077000
     16 C1          -4.4580    -1.0580     0.3890 ca         1 5Z5       0.002400
     17 CL1         -5.1930    -2.6050     0.6790 cl         1 5Z5      -0.111400
     18 C2          -5.2730     0.0540     0.2250 ca         1 5Z5      -0.092000
     19 C3          -4.7070     1.3040    -0.0080 ca         1 5Z5      -0.148000
     20 C6          -3.3310     1.3910    -0.0680 ca         1 5Z5       0.052600
     21 N1          -2.5260     2.4950    -0.2820 ns         1 5Z5      -0.454100
     22 C8          -1.2010     2.1720    -0.2680 c          1 5Z5       0.727700
     23 O1          -0.2960     2.9870    -0.4350 o          1 5Z5      -0.658500
     24 H171         7.2540    -1.7500    -1.0250 h1         1 5Z5       0.038033
     25 H172         6.9000    -2.3780     0.5880 h1         1 5Z5       0.038033
     26 H173         6.4330    -3.3030    -0.8390 h1         1 5Z5       0.038033
     27 H3           4.5020    -2.1210    -1.0100 hn         1 5Z5       0.315500
     28 H141         2.3900    -2.7710    -0.5700 hc         1 5Z5       0.045700
     29 H142         3.0150    -2.5470     1.0580 hc         1 5Z5       0.045700
     30 H143         1.2900    -2.4470     0.7520 hc         1 5Z5       0.045700
     31 H151         4.1940     2.7510    -1.4990 hc         1 5Z5       0.064033
     32 H152         3.6080     3.4530     0.0030 hc         1 5Z5       0.064033
     33 H153         5.0620     2.4500     0.0030 hc         1 5Z5       0.064033
     34 H2           1.3280     2.2630    -0.3260 hn         1 5Z5       0.350700
     35 H9          -0.2480    -1.1310     0.2500 ha         1 5Z5       0.136000
     36 H4          -2.4620    -1.8570     0.4620 ha         1 5Z5       0.148000
     37 HA          -6.3480    -0.0460     0.2760 ha         1 5Z5       0.150000
     38 HB          -5.3380     2.1740    -0.1360 ha         1 5Z5       0.144000
     39 H1          -2.8630     3.4340    -0.4320 hn         1 5Z5       0.343500
@<TRIPOS>BOND
     1     1     2 1   
     2     1    24 1   
     3     1    25 1   
     4     1    26 1   
     5     2     3 1   
     6     2    27 1   
     7     3     4 2   
     8     3     5 1   
     9     5     6 1   
    10     5     8 2   
    11     6     7 1   
    12     6    11 2   
    13     7    28 1   
    14     7    29 1   
    15     7    30 1   
    16     8     9 1   
    17     8    10 1   
    18     9    31 1   
    19     9    32 1   
    20     9    33 1   
    21    10    11 1   
    22    10    34 1   
    23    11    12 1   
    24    12    13 2   
    25    12    35 1   
    26    13    14 1   
    27    13    22 1   
    28    14    15 ar  
    29    14    20 ar  
    30    15    16 ar  
    31    15    36 1   
    32    16    17 1   
    33    16    18 ar  
    34    18    19 ar  
    35    18    37 1   
    36    19    20 ar  
    37    19    38 1   
    38    20    21 1   
    39    21    22 1   
    40    21    39 1   
    41    22    23 2   
@<TRIPOS>SUBSTRUCTURE
     1 5Z5         1 TEMP              0 ****  ****    0 ROOT
