@<TRIPOS>MOLECULE
5Z5
   39    41     1     0     0
SMALL
No Charge or Current Charge


@<TRIPOS>ATOM
      1 C17          6.5310    -2.4370    -0.1670 c3         1 5Z5       0.095300
      2 N3           5.2330    -1.7610    -0.1500 ns         1 5Z5      -0.505900
      3 C16          5.0580    -0.4020    -0.2380 c          1 5Z5       0.641700
      4 O2           6.0280     0.3360    -0.3400 o          1 5Z5      -0.615100
      5 C12          3.6380     0.0850    -0.2010 cc         1 5Z5      -0.252600
      6 C11          2.4210    -0.6710    -0.0850 cc         1 5Z5      -0.047300
      7 C14          2.3310    -2.1800     0.0270 c3         1 5Z5      -0.035800
      8 C13          3.3070     1.4180    -0.2800 cd         1 5Z5      -0.047300
      9 C15          4.1700     2.6500    -0.4110 c3         1 5Z5      -0.048800
     10 N2           1.9210     1.4860    -0.2140 na         1 5Z5      -0.071000
     11 C10          1.3620     0.2140    -0.0950 cd         1 5Z5      -0.224800
     12 C9          -0.0790    -0.0870    -0.0010 cf         1 5Z5       0.026800
     13 C7          -1.1820     0.7330    -0.0030 cc         1 5Z5      -0.207400
     14 C5          -2.5740     0.2800     0.0990 ca         1 5Z5      -0.081800
     15 C4          -3.1230    -1.0080     0.2190 ca         1 5Z5      -0.059000
     16 C1          -4.5280    -1.1250     0.2980 ca         1 5Z5       0.094000
     17 Cl1         -5.2590    -2.7180     0.4490 cl         1 5Z5      -0.203000
     18 C2          -5.3570     0.0230     0.2590 ca         1 5Z5      -0.074000
     19 C3          -4.7890     1.3100     0.1380 ca         1 5Z5      -0.130000
     20 C6          -3.3960     1.3930     0.0620 ca         1 5Z5       0.052600
     21 N1          -2.5700     2.5040    -0.0600 ns         1 5Z5      -0.387100
     22 C8          -1.2320     2.2230    -0.1070 c          1 5Z5       0.585200
     23 O1          -0.3340     3.0460    -0.2110 o          1 5Z5      -0.583000
     24 H171         7.0510    -2.2160    -1.1090 h1         1 5Z5       0.038033
     25 H172         7.1410    -2.0890     0.6770 h1         1 5Z5       0.038033
     26 H173         6.3810    -3.5210    -0.0820 h1         1 5Z5       0.038033
     27 H3           4.3970    -2.3200    -0.0680 hn         1 5Z5       0.315500
     28 H141         2.7620    -2.6660    -0.8560 hc         1 5Z5       0.045700
     29 H142         2.8520    -2.5390     0.9220 hc         1 5Z5       0.045700
     30 H143         1.3000    -2.5370     0.1050 hc         1 5Z5       0.045700
     31 H151         4.7680     2.6160    -1.3290 hc         1 5Z5       0.064033
     32 H152         3.5650     3.5640    -0.4460 hc         1 5Z5       0.064033
     33 H153         4.8570     2.7430     0.4380 hc         1 5Z5       0.064033
     34 H2           1.3750     2.3480    -0.2480 hn         1 5Z5       0.401000
     35 H9          -0.3310    -1.1410     0.0870 ha         1 5Z5       0.186000
     36 H4          -2.4960    -1.8940     0.2510 ha         1 5Z5       0.130000
     37 HA          -6.4370    -0.0890     0.3210 ha         1 5Z5       0.132000
     38 HB          -5.4110     2.2010     0.1060 ha         1 5Z5       0.126000
     39 H1          -2.9200     3.4520    -0.1090 hn         1 5Z5       0.343500
@<TRIPOS>BOND
     1     1     2 1   
     2     1    24 1   
     3     1    25 1   
     4     1    26 1   
     5     2     3 1   
     6     2    27 1   
     7     3     4 2   
     8     3     5 1   
     9     5     6 1   
    10     5     8 2   
    11     6     7 1   
    12     6    11 2   
    13     7    28 1   
    14     7    29 1   
    15     7    30 1   
    16     8     9 1   
    17     8    10 1   
    18     9    31 1   
    19     9    32 1   
    20     9    33 1   
    21    10    11 1   
    22    10    34 1   
    23    11    12 1   
    24    12    13 2   
    25    12    35 1   
    26    13    14 1   
    27    13    22 1   
    28    14    15 ar  
    29    14    20 ar  
    30    15    16 ar  
    31    15    36 1   
    32    16    17 1   
    33    16    18 ar  
    34    18    19 ar  
    35    18    37 1   
    36    19    20 ar  
    37    19    38 1   
    38    20    21 1   
    39    21    22 1   
    40    21    39 1   
    41    22    23 2   
@<TRIPOS>SUBSTRUCTURE
     1 5Z5         1 TEMP              0 ****  ****    0 ROOT
