@<TRIPOS>MOLECULE
5Z6
   54    55     1     0     0
SMALL
abcg2


@<TRIPOS>ATOM
      1 C10         29.6430    -5.0500     9.7160 ce         1 5Z6      -0.370200
      2 C13         30.4300    -5.1690    12.6460 ca         1 5Z6      -0.101500
      3 C15         31.8100    -4.2040    14.3890 ca         1 5Z6      -0.095600
      4 C20         31.7620    -3.2190    12.1810 ca         1 5Z6      -0.101500
      5 C21         28.5100    -6.1070     6.2650 ca         1 5Z6      -0.068000
      6 C22         27.7500    -7.0710     5.6220 ca         1 5Z6      -0.084300
      7 C24         28.7370    -6.3080     3.4050 c3         1 5Z6      -0.082100
      8 C26         26.3780    -7.1030     3.5240 c3         1 5Z6      -0.082100
      9 C1          26.7100    -9.3510     9.7180 c3         1 5Z6      -0.082100
     10 C3          24.8530    -7.7020     9.3260 c3         1 5Z6      -0.082100
     11 C4          25.1400    -9.6600     7.8090 c3         1 5Z6      -0.082100
     12 C5          26.8240    -7.7500     7.7890 ca         1 5Z6      -0.084300
     13 C6          27.6200    -6.7810     8.4050 ca         1 5Z6      -0.068000
     14 C7          28.4610    -5.9610     7.6580 ca         1 5Z6      -0.152600
     15 C8          29.3090    -4.9070     8.2890 c          1 5Z6       0.585900
     16 C11         30.4190    -4.1520    10.3460 cf         1 5Z6      -0.017200
     17 C12         30.8590    -4.1930    11.7320 ca         1 5Z6      -0.138800
     18 C14         30.8970    -5.1680    13.9480 ca         1 5Z6      -0.104000
     19 C19         32.2320    -3.2290    13.4860 ca         1 5Z6      -0.104000
     20 C25         28.2780    -8.7230     3.8170 c3         1 5Z6      -0.082100
     21 C27         26.9140    -7.8790     6.4080 ca         1 5Z6      -0.093000
     22 O9          29.7340    -3.9690     7.6150 o          1 5Z6      -0.566100
     23 O17         33.1910    -3.3560    16.1270 o          1 5Z6      -0.715000
     24 O18         31.8660    -5.1060    16.5870 o          1 5Z6      -0.715000
     25 H101        29.2790    -5.9230    10.2380 ha         1 5Z6       0.182000
     26 H131        29.7240    -5.9290    12.3360 ha         1 5Z6       0.090000
     27 H201        32.0990    -2.4550    11.4900 ha         1 5Z6       0.090000
     28 H211        29.1680    -5.4530     5.7140 ha         1 5Z6       0.126500
     29 H242        29.7650    -6.4160     3.7560 hc         1 5Z6       0.034756
     30 H243        28.7280    -6.5040     2.3310 hc         1 5Z6       0.034756
     31 H241        28.4290    -5.2710     3.5600 hc         1 5Z6       0.034756
     32 H261        25.6680    -7.8060     3.9600 hc         1 5Z6       0.034756
     33 H263        26.0150    -6.0900     3.7130 hc         1 5Z6       0.034756
     34 H262        26.3960    -7.2660     2.4450 hc         1 5Z6       0.034756
     35 H011        27.2330    -8.6550    10.3740 hc         1 5Z6       0.034756
     36 H013        26.0490    -9.9630    10.3350 hc         1 5Z6       0.034756
     37 H012        27.4520   -10.0060     9.2560 hc         1 5Z6       0.034756
     38 H033        25.3340    -6.9650     9.9700 hc         1 5Z6       0.034756
     39 H031        24.2590    -7.1690     8.5810 hc         1 5Z6       0.034756
     40 H032        24.1770    -8.3000     9.9410 hc         1 5Z6       0.034756
     41 H042        24.5010   -10.2520     8.4650 hc         1 5Z6       0.034756
     42 H041        24.5030    -9.1930     7.0540 hc         1 5Z6       0.034756
     43 H043        25.8270   -10.3420     7.3040 hc         1 5Z6       0.034756
     44 H061        27.5610    -6.6540     9.4760 ha         1 5Z6       0.126500
     45 H111        30.7770    -3.3070     9.7650 ha         1 5Z6       0.178000
     46 H141        30.5620    -5.9210    14.6490 ha         1 5Z6       0.133500
     47 H191        32.9350    -2.4790    13.8220 ha         1 5Z6       0.133500
     48 H253        27.6110    -9.4680     4.2530 hc         1 5Z6       0.034756
     49 H251        28.3170    -8.8930     2.7390 hc         1 5Z6       0.034756
     50 H252        29.2790    -8.8810     4.2250 hc         1 5Z6       0.034756
     51 H271        26.3180    -8.6310     5.9140 ha         1 5Z6       0.105000
     52 C2          25.8900    -8.6140     8.6420 c3         1 5Z6      -0.000700
     53 C16         32.3340    -4.2230    15.8240 c          1 5Z6       0.702600
     54 C23         27.7930    -7.2890     4.1070 c3         1 5Z6      -0.000700
@<TRIPOS>BOND
     1     1    15 1   
     2     1    16 2   
     3     1    25 1   
     4     2    17 ar  
     5     2    18 ar  
     6     2    26 1   
     7     3    18 ar  
     8     3    19 ar  
     9     3    53 1   
    10     4    17 ar  
    11     4    19 ar  
    12     4    27 1   
    13     5     6 ar  
    14     5    14 ar  
    15     5    28 1   
    16     6    21 ar  
    17     6    54 1   
    18     7    29 1   
    19     7    30 1   
    20     7    31 1   
    21     7    54 1   
    22     8    32 1   
    23     8    33 1   
    24     8    34 1   
    25     8    54 1   
    26     9    35 1   
    27     9    36 1   
    28     9    37 1   
    29     9    52 1   
    30    10    38 1   
    31    10    39 1   
    32    10    40 1   
    33    10    52 1   
    34    11    41 1   
    35    11    42 1   
    36    11    43 1   
    37    11    52 1   
    38    12    13 ar  
    39    12    21 ar  
    40    12    52 1   
    41    13    14 ar  
    42    13    44 1   
    43    14    15 1   
    44    15    22 2   
    45    16    17 1   
    46    16    45 1   
    47    18    46 1   
    48    19    47 1   
    49    20    48 1   
    50    20    49 1   
    51    20    50 1   
    52    20    54 1   
    53    21    51 1   
    54    23    53 1   
    55    24    53 1   
@<TRIPOS>SUBSTRUCTURE
     1 5Z6         1 TEMP              0 ****  ****    0 ROOT
