@<TRIPOS>MOLECULE
5Z6
   54    55     1     0     0
SMALL
No Charge or Current Charge


@<TRIPOS>ATOM
      1 C10         29.7900    -5.0730     9.6970 ce         1 5Z6      -0.370200
      2 C13         30.6080    -5.2230    12.6750 ca         1 5Z6      -0.101500
      3 C15         31.8020    -4.1400    14.5250 ca         1 5Z6      -0.095600
      4 C20         31.7180    -3.1000    12.3060 ca         1 5Z6      -0.101500
      5 C21         28.5540    -6.1560     6.2060 ca         1 5Z6      -0.068000
      6 C22         27.7370    -7.1120     5.5590 ca         1 5Z6      -0.084300
      7 C24         28.7360    -6.3700     3.2790 c3         1 5Z6      -0.082100
      8 C26         26.3250    -7.0470     3.4540 c3         1 5Z6      -0.082100
      9 C1          26.7170    -9.4000     9.6970 c3         1 5Z6      -0.082100
     10 C3          24.8790    -7.6820     9.3880 c3         1 5Z6      -0.082100
     11 C4          25.0430    -9.6560     7.8450 c3         1 5Z6      -0.082100
     12 C5          26.8210    -7.7640     7.7630 ca         1 5Z6      -0.084300
     13 C6          27.6530    -6.7980     8.3690 ca         1 5Z6      -0.068000
     14 C7          28.5310    -5.9970     7.6070 ca         1 5Z6      -0.152600
     15 C8          29.4280    -4.9570     8.2510 c          1 5Z6       0.585900
     16 C11         30.5220    -4.1510    10.3890 cf         1 5Z6      -0.017200
     17 C12         30.9490    -4.1680    11.8040 ca         1 5Z6      -0.138800
     18 C14         31.0290    -5.2090    14.0170 ca         1 5Z6      -0.104000
     19 C19         32.1400    -3.0850    13.6470 ca         1 5Z6      -0.104000
     20 C25         28.1610    -8.7790     3.6960 c3         1 5Z6      -0.082100
     21 C27         26.8820    -7.9070     6.3560 ca         1 5Z6      -0.093000
     22 O9          29.8500    -4.0120     7.5940 o          1 5Z6      -0.566100
     23 O17         32.9250    -3.1790    16.3740 o          1 5Z6      -0.715000
     24 O18         31.9430    -5.0600    16.7020 o          1 5Z6      -0.715000
     25 H101        29.4610    -5.9700    10.2080 ha         1 5Z6       0.182000
     26 H131        30.0150    -6.0630    12.3270 ha         1 5Z6       0.090000
     27 H201        31.9940    -2.2730    11.6560 ha         1 5Z6       0.090000
     28 H211        29.2290    -5.5270     5.6350 ha         1 5Z6       0.126500
     29 H242        29.7680    -6.5350     3.6150 hc         1 5Z6       0.034756
     30 H243        28.7120    -6.5460     2.1970 hc         1 5Z6       0.034756
     31 H241        28.4770    -5.3180     3.4460 hc         1 5Z6       0.034756
     32 H261        25.5870    -7.7500     3.8570 hc         1 5Z6       0.034756
     33 H263        25.9960    -6.0320     3.7050 hc         1 5Z6       0.034756
     34 H262        26.3100    -7.1470     2.3610 hc         1 5Z6       0.034756
     35 H011        27.2540    -8.7250    10.3740 hc         1 5Z6       0.034756
     36 H013        26.0790   -10.0430    10.3150 hc         1 5Z6       0.034756
     37 H012        27.4580   -10.0370     9.1980 hc         1 5Z6       0.034756
     38 H033        25.3960    -6.9840    10.0570 hc         1 5Z6       0.034756
     39 H031        24.2990    -7.0920     8.6680 hc         1 5Z6       0.034756
     40 H032        24.1730    -8.2600     9.9980 hc         1 5Z6       0.034756
     41 H042        24.3970   -10.2420     8.5110 hc         1 5Z6       0.034756
     42 H041        24.3940    -9.1600     7.1120 hc         1 5Z6       0.034756
     43 H043        25.6950   -10.3610     7.3160 hc         1 5Z6       0.034756
     44 H061        27.5910    -6.6550     9.4420 ha         1 5Z6       0.126500
     45 H111        30.8510    -3.2630     9.8420 ha         1 5Z6       0.178000
     46 H141        30.7500    -6.0380    14.6640 ha         1 5Z6       0.133500
     47 H191        32.7330    -2.2450    14.0020 ha         1 5Z6       0.133500
     48 H253        27.4470    -9.5030     4.1020 hc         1 5Z6       0.034756
     49 H251        28.2150    -8.9420     2.6130 hc         1 5Z6       0.034756
     50 H252        29.1480    -9.0030     4.1210 hc         1 5Z6       0.034756
     51 H271        26.2570    -8.6380     5.8580 ha         1 5Z6       0.105000
     52 C2          25.8750    -8.6190     8.6520 c3         1 5Z6      -0.000700
     53 C16         32.2580    -4.1250    15.9780 c          1 5Z6       0.702600
     54 C23         27.7470    -7.3170     4.0170 c3         1 5Z6      -0.000700
@<TRIPOS>BOND
     1     1    15 1   
     2     1    16 2   
     3     1    25 1   
     4     2    17 ar  
     5     2    18 ar  
     6     2    26 1   
     7     3    18 ar  
     8     3    19 ar  
     9     3    53 1   
    10     4    17 ar  
    11     4    19 ar  
    12     4    27 1   
    13     5     6 ar  
    14     5    14 ar  
    15     5    28 1   
    16     6    21 ar  
    17     6    54 1   
    18     7    29 1   
    19     7    30 1   
    20     7    31 1   
    21     7    54 1   
    22     8    32 1   
    23     8    33 1   
    24     8    34 1   
    25     8    54 1   
    26     9    35 1   
    27     9    36 1   
    28     9    37 1   
    29     9    52 1   
    30    10    38 1   
    31    10    39 1   
    32    10    40 1   
    33    10    52 1   
    34    11    41 1   
    35    11    42 1   
    36    11    43 1   
    37    11    52 1   
    38    12    13 ar  
    39    12    21 ar  
    40    12    52 1   
    41    13    14 ar  
    42    13    44 1   
    43    14    15 1   
    44    15    22 2   
    45    16    17 1   
    46    16    45 1   
    47    18    46 1   
    48    19    47 1   
    49    20    48 1   
    50    20    49 1   
    51    20    50 1   
    52    20    54 1   
    53    21    51 1   
    54    23    53 1   
    55    24    53 1   
@<TRIPOS>SUBSTRUCTURE
     1 5Z6         1 TEMP              0 ****  ****    0 ROOT
