@<TRIPOS>MOLECULE
5Z7
   38    40     1     0     0
SMALL
No Charge or Current Charge


@<TRIPOS>ATOM
      1 C1          14.9360    -1.9580    17.6050 cc         1 5Z7       0.055400
      2 C10          8.8040     0.1580    19.2820 ca         1 5Z7       0.318000
      3 C11          7.7940    -0.4010    18.4790 ca         1 5Z7      -0.173000
      4 C12          6.4420    -0.1340    18.7450 ca         1 5Z7       0.178000
      5 C13          6.0850     0.6990    19.8240 ca         1 5Z7      -0.047900
      6 C14          7.0880     1.2590    20.6310 ca         1 5Z7      -0.046000
      7 C15          8.4400     0.9880    20.3580 ca         1 5Z7      -0.156000
      8 C17         16.8880    -3.3120    17.0060 c          1 5Z7       0.618000
      9 C2          14.4410    -0.8740    18.5370 c          1 5Z7       0.602300
     10 C20         14.8350    -3.5480    15.6970 c          1 5Z7       0.586200
     11 C22         14.2310    -2.5260    16.5610 cd         1 5Z7      -0.357200
     12 C5          12.0760    -1.7220    18.7600 c6         1 5Z7       0.091500
     13 C6          10.6160    -1.3610    18.3730 c6         1 5Z7       0.182300
     14 C8          11.1060     1.0350    18.7810 c6         1 5Z7       0.182300
     15 C9          12.5710     0.6750    19.1510 c6         1 5Z7       0.091500
     16 N16         16.2550    -2.3690    17.7580 ns         1 5Z7      -0.505600
     17 N19         16.1230    -3.8490    16.0210 ns         1 5Z7      -0.468500
     18 N4          13.0530    -0.6040    18.5490 n          1 5Z7      -0.401800
     19 N7          10.1720    -0.0990    19.0300 nh         1 5Z7      -0.796400
     20 O18         18.0420    -3.6400    17.2010 o          1 5Z7      -0.543000
     21 O21         14.2550    -4.0830    14.7690 o          1 5Z7      -0.520000
     22 O3          15.2090    -0.2310    19.2470 o          1 5Z7      -0.579100
     23 Br24         4.2480     1.0860    20.2190 br         1 5Z7      -0.074100
     24 Cl23         5.2120    -0.8530    17.7070 cl         1 5Z7      -0.178000
     25 H1           8.0490    -1.0350    17.6360 ha         1 5Z7       0.131000
     26 H2           6.8210     1.9010    21.4680 ha         1 5Z7       0.133000
     27 H3           9.2100     1.4160    20.9930 ha         1 5Z7       0.122000
     28 H4          13.2260    -2.2360    16.2830 ha         1 5Z7       0.225000
     29 H5          12.0830    -1.9750    19.8300 h1         1 5Z7       0.071450
     30 H6          12.3700    -2.6370    18.2350 h1         1 5Z7       0.071450
     31 H7          10.5520    -1.2580    17.2790 h1         1 5Z7       0.055950
     32 H8           9.9650    -2.1970    18.6660 h1         1 5Z7       0.055950
     33 H9          11.0700     1.3140    17.7180 h1         1 5Z7       0.055950
     34 H10         10.8100     1.9240    19.3560 h1         1 5Z7       0.055950
     35 H11         12.6490     0.6000    20.2450 h1         1 5Z7       0.071450
     36 H12         13.2250     1.5000    18.8350 h1         1 5Z7       0.071450
     37 H13         16.8280    -1.9520    18.4870 hn         1 5Z7       0.474000
     38 H14         16.5700    -4.5480    15.4500 hn         1 5Z7       0.347500
@<TRIPOS>BOND
     1     1     9 1   
     2     1    11 2   
     3     1    16 1   
     4     2     3 ar  
     5     2     7 ar  
     6     2    19 1   
     7     3     4 ar  
     8     3    25 1   
     9     4     5 ar  
    10     4    24 1   
    11     5     6 ar  
    12     5    23 1   
    13     6     7 ar  
    14     6    26 1   
    15     7    27 1   
    16     8    16 1   
    17     8    17 1   
    18     8    20 2   
    19     9    18 1   
    20     9    22 2   
    21    10    11 1   
    22    10    17 1   
    23    10    21 2   
    24    11    28 1   
    25    12    13 1   
    26    12    18 1   
    27    12    29 1   
    28    12    30 1   
    29    13    19 1   
    30    13    31 1   
    31    13    32 1   
    32    14    15 1   
    33    14    19 1   
    34    14    33 1   
    35    14    34 1   
    36    15    18 1   
    37    15    35 1   
    38    15    36 1   
    39    16    37 1   
    40    17    38 1   
@<TRIPOS>SUBSTRUCTURE
     1 5Z7         1 TEMP              0 ****  ****    0 ROOT
