@<TRIPOS>MOLECULE
5Z7
   38    40     1     0     0
SMALL
abcg2


@<TRIPOS>ATOM
      1 C1          14.6870    -1.8170    17.4720 cc         1 5Z7       0.055400
      2 C10          9.0050     0.0770    19.2930 ca         1 5Z7       0.318000
      3 C11          8.0990    -0.6910    18.5490 ca         1 5Z7      -0.173000
      4 C12          6.7380    -0.4070    18.5650 ca         1 5Z7       0.178000
      5 C13          6.2410     0.6590    19.3030 ca         1 5Z7      -0.047900
      6 C14          7.1340     1.4360    20.0360 ca         1 5Z7      -0.046000
      7 C15          8.4860     1.1550    20.0360 ca         1 5Z7      -0.156000
      8 C17         16.4260    -3.4150    16.9490 c          1 5Z7       0.618000
      9 C2          14.3420    -0.6720    18.3920 c          1 5Z7       0.602300
     10 C20         14.4600    -3.1420    15.4610 c          1 5Z7       0.586200
     11 C22         13.9700    -2.1320    16.3730 cd         1 5Z7      -0.357200
     12 C5          12.2210    -1.8060    19.0900 c6         1 5Z7       0.091500
     13 C6          10.8350    -1.4030    18.6110 c6         1 5Z7       0.182300
     14 C8          11.3130     0.8930    19.2560 c6         1 5Z7       0.182300
     15 C9          12.6900     0.4840    19.7520 c6         1 5Z7       0.091500
     16 N16         15.8750    -2.4370    17.7460 ns         1 5Z7      -0.505600
     17 N19         15.6730    -3.7180    15.8380 ns         1 5Z7      -0.468500
     18 N4          13.1480    -0.6820    19.0010 n          1 5Z7      -0.401800
     19 N7          10.3660    -0.2240    19.3320 nh         1 5Z7      -0.796400
     20 O18         17.4860    -3.9600    17.2090 o          1 5Z7      -0.543000
     21 O21         13.9010    -3.5020    14.4320 o          1 5Z7      -0.520000
     22 O3          15.1750     0.2280    18.4990 o          1 5Z7      -0.579100
     23 BR24         4.3860     1.0910    19.3490 br         1 5Z7      -0.074100
     24 CL23         5.6880    -1.4190    17.6100 cl         1 5Z7      -0.178000
     25 H1           8.4330    -1.5120    17.9360 ha         1 5Z7       0.131000
     26 H2           6.7610     2.2640    20.6230 ha         1 5Z7       0.133000
     27 H3           9.1370     1.7660    20.6430 ha         1 5Z7       0.122000
     28 H4          13.0380    -1.6400    16.1450 ha         1 5Z7       0.225000
     29 H5          12.1670    -2.1100    20.1400 h1         1 5Z7       0.071450
     30 H6          12.5860    -2.6470    18.5100 h1         1 5Z7       0.071450
     31 H7          10.8550    -1.2260    17.5260 h1         1 5Z7       0.055950
     32 H8          10.1630    -2.2360    18.8080 h1         1 5Z7       0.055950
     33 H9          11.3930     1.2440    18.2180 h1         1 5Z7       0.055950
     34 H10         10.9640     1.7220    19.8640 h1         1 5Z7       0.055950
     35 H11         12.6500     0.2270    20.8140 h1         1 5Z7       0.071450
     36 H12         13.3970     1.2950    19.6100 h1         1 5Z7       0.071450
     37 H13         16.4150    -2.1570    18.5540 hn         1 5Z7       0.474000
     38 H14         16.0500    -4.4330    15.2280 hn         1 5Z7       0.347500
@<TRIPOS>BOND
     1     1     9 1   
     2     1    11 2   
     3     1    16 1   
     4     2     3 ar  
     5     2     7 ar  
     6     2    19 1   
     7     3     4 ar  
     8     3    25 1   
     9     4     5 ar  
    10     4    24 1   
    11     5     6 ar  
    12     5    23 1   
    13     6     7 ar  
    14     6    26 1   
    15     7    27 1   
    16     8    16 1   
    17     8    17 1   
    18     8    20 2   
    19     9    18 1   
    20     9    22 2   
    21    10    11 1   
    22    10    17 1   
    23    10    21 2   
    24    11    28 1   
    25    12    13 1   
    26    12    18 1   
    27    12    29 1   
    28    12    30 1   
    29    13    19 1   
    30    13    31 1   
    31    13    32 1   
    32    14    15 1   
    33    14    19 1   
    34    14    33 1   
    35    14    34 1   
    36    15    18 1   
    37    15    35 1   
    38    15    36 1   
    39    16    37 1   
    40    17    38 1   
@<TRIPOS>SUBSTRUCTURE
     1 5Z7         1 TEMP              0 ****  ****    0 ROOT
