@<TRIPOS>MOLECULE
5Z9
   16    15     1     0     0
SMALL
No Charge or Current Charge


@<TRIPOS>ATOM
      1 N1         -33.0560    12.4230    66.4060 n1         1 5Z9      -0.451000
      2 C1         -32.1220     9.8690    69.1690 c3         1 5Z9      -0.088100
      3 C2         -33.4770     9.5900    68.4700 c3         1 5Z9      -0.100400
      4 C3         -34.3330    10.8450    68.1190 c3         1 5Z9       0.251100
      5 C4         -35.6840    10.4170    67.4970 c3         1 5Z9      -0.122100
      6 C5         -33.6110    11.7380    67.1710 c1         1 5Z9       0.313900
      7 O1         -34.6340    11.5420    69.3390 oh         1 5Z9      -0.640000
      8 H1         -31.6110     8.9240    69.3920 hc         1 5Z9       0.042367
      9 H2         -31.4580    10.4640    68.5310 hc         1 5Z9       0.042367
     10 H3         -32.2660    10.4040    70.1150 hc         1 5Z9       0.042367
     11 H4         -34.0640     8.9240    69.1160 hc         1 5Z9       0.049200
     12 H5         -33.2810     9.0220    67.5510 hc         1 5Z9       0.049200
     13 H6         -36.2420     9.7630    68.1780 hc         1 5Z9       0.052700
     14 H7         -36.3110    11.2910    67.2790 hc         1 5Z9       0.052700
     15 H8         -35.5270     9.8690    66.5590 hc         1 5Z9       0.052700
     16 H9         -35.0820    10.9000    69.9300 ho         1 5Z9       0.452000
@<TRIPOS>BOND
     1     1     6 3   
     2     2     3 1   
     3     2     8 1   
     4     2     9 1   
     5     2    10 1   
     6     3     4 1   
     7     3    11 1   
     8     3    12 1   
     9     4     5 1   
    10     4     6 1   
    11     4     7 1   
    12     5    13 1   
    13     5    14 1   
    14     5    15 1   
    15     7    16 1   
@<TRIPOS>SUBSTRUCTURE
     1 5Z9         1 TEMP              0 ****  ****    0 ROOT
