@<TRIPOS>MOLECULE
5Z9
   16    15     1     0     0
SMALL
abcg2


@<TRIPOS>ATOM
      1 N1         -33.0590    12.3820    66.5100 n1         1 5Z9      -0.451000
      2 C1         -32.1560     9.8780    69.1380 c3         1 5Z9      -0.088100
      3 C2         -33.4830     9.5720    68.4630 c3         1 5Z9      -0.100400
      4 C3         -34.3520    10.8040    68.1650 c3         1 5Z9       0.251100
      5 C4         -35.6610    10.3920    67.4900 c3         1 5Z9      -0.122100
      6 C5         -33.6170    11.6950    67.2440 c1         1 5Z9       0.313900
      7 O1         -34.5780    11.5890    69.3110 oh         1 5Z9      -0.640000
      8 H1         -31.6130     8.9530    69.3260 hc         1 5Z9       0.042367
      9 H2         -31.5180    10.5090    68.5160 hc         1 5Z9       0.042367
     10 H3         -32.2950    10.3790    70.0950 hc         1 5Z9       0.042367
     11 H4         -34.0820     8.9100    69.0950 hc         1 5Z9       0.049200
     12 H5         -33.3170     9.0330    67.5280 hc         1 5Z9       0.049200
     13 H6         -36.2160     9.7350    68.1620 hc         1 5Z9       0.052700
     14 H7         -36.2790    11.2600    67.2640 hc         1 5Z9       0.052700
     15 H8         -35.4750     9.8470    66.5650 hc         1 5Z9       0.052700
     16 H9         -35.0580    11.0480    69.9500 ho         1 5Z9       0.452000
@<TRIPOS>BOND
     1     1     6 3   
     2     2     3 1   
     3     2     8 1   
     4     2     9 1   
     5     2    10 1   
     6     3     4 1   
     7     3    11 1   
     8     3    12 1   
     9     4     5 1   
    10     4     6 1   
    11     4     7 1   
    12     5    13 1   
    13     5    14 1   
    14     5    15 1   
    15     7    16 1   
@<TRIPOS>SUBSTRUCTURE
     1 5Z9         1 TEMP              0 ****  ****    0 ROOT
