@<TRIPOS>MOLECULE
5ZA
   44    46     1     0     0
SMALL
No Charge or Current Charge


@<TRIPOS>ATOM
      1 C25         -4.9200     2.8230     0.2970 c3         1 5ZA      -0.129100
      2 C23         -3.6240     2.1120    -0.1530 c3         1 5ZA       0.121300
      3 O24         -2.8590     3.0370    -0.9490 oh         1 5ZA      -0.657000
      4 C22         -2.7720     1.5770     1.0470 c3         1 5ZA       0.155200
      5 N26         -2.1670     2.7120     1.8360 n8         1 5ZA      -0.993200
      6 C14         -1.7720     0.4950     0.5860 cc         1 5ZA       0.495900
      7 N13         -0.4680     0.7440     0.3620 nd         1 5ZA      -0.647300
      8 C12          0.0100    -0.5090    -0.0130 cd         1 5ZA      -0.002600
      9 C11          1.3330    -0.7140    -0.3430 ce         1 5ZA      -0.067000
     10 C7           2.4920     0.1790    -0.3810 cc         1 5ZA      -0.102200
     11 C8           2.4680     1.5380    -0.6830 cd         1 5ZA      -0.117100
     12 N9           3.7830     2.0550    -0.7000 na         1 5ZA      -0.221700
     13 C6           4.6100     0.9960    -0.3870 ca         1 5ZA      -0.037200
     14 C5           6.0060     1.0240    -0.2790 ca         1 5ZA      -0.171000
     15 C4           6.6730    -0.1650     0.0710 ca         1 5ZA      -0.067000
     16 C3           5.9340    -1.3430     0.3220 ca         1 5ZA      -0.227000
     17 C2           4.5310    -1.3470     0.2160 ca         1 5ZA       0.325000
     18 N10          3.8490    -2.4950     0.5170 nv         1 5ZA      -1.046000
     19 C1           3.8880    -0.1480    -0.1650 ca         1 5ZA      -0.112800
     20 C16         -1.0290    -1.5550    -0.0170 c          1 5ZA       0.545200
     21 O17         -0.9570    -2.7470    -0.2890 o          1 5ZA      -0.516000
     22 N15         -2.1280    -0.8340     0.3800 n          1 5ZA      -0.310300
     23 C18         -3.4840    -1.4440     0.4930 c3         1 5ZA      -0.049000
     24 C19         -4.0680    -1.9650    -0.8420 c          1 5ZA       0.713000
     25 O21         -4.0450    -1.2200    -1.8120 o          1 5ZA      -0.717000
     26 H251        -5.5190     3.1230    -0.5720 hc         1 5ZA       0.033033
     27 H252        -5.5330     2.1510     0.9090 hc         1 5ZA       0.033033
     28 H253        -4.7010     3.7210     0.8870 hc         1 5ZA       0.033033
     29 H23         -3.9230     1.2470    -0.7640 h1         1 5ZA       0.099700
     30 H24         -3.4440     3.3530    -1.6730 ho         1 5ZA       0.443000
     31 H22         -3.4700     1.0790     1.7320 h1         1 5ZA       0.072700
     32 H261        -1.4450     3.1290     1.2360 hn         1 5ZA       0.402500
     33 H262        -2.8650     3.4600     1.9030 hn         1 5ZA       0.402500
     34 H11          1.5590    -1.7450    -0.6100 ha         1 5ZA       0.189000
     35 H8           1.6050     2.1610    -0.9090 h4         1 5ZA       0.250000
     36 HN9          4.0620     3.0100    -0.9010 hn         1 5ZA       0.341000
     37 H5           6.5630     1.9400    -0.4610 ha         1 5ZA       0.105000
     38 H4           7.7570    -0.1740     0.1610 ha         1 5ZA       0.097000
     39 H3           6.4600    -2.2500     0.6090 ha         1 5ZA       0.100000
     40 H101         4.3690    -3.2630     0.9350 hn         1 5ZA       0.438000
     41 H102         2.8740    -2.4170     0.7870 hn         1 5ZA       0.438000
     42 H181        -3.4270    -2.2840     1.1970 h1         1 5ZA       0.037200
     43 H182        -4.1980    -0.7210     0.9020 h1         1 5ZA       0.037200
     44 OXT         -4.5300    -3.0970    -0.8700 o          1 5ZA      -0.717000
@<TRIPOS>BOND
     1     1     2 1   
     2     1    26 1   
     3     1    27 1   
     4     1    28 1   
     5     2     3 1   
     6     2     4 1   
     7     2    29 1   
     8     3    30 1   
     9     4     5 1   
    10     4     6 1   
    11     4    31 1   
    12     5    32 1   
    13     5    33 1   
    14     6     7 2   
    15     6    22 1   
    16     7     8 1   
    17     8     9 2   
    18     8    20 1   
    19     9    10 1   
    20     9    34 1   
    21    10    11 2   
    22    10    19 1   
    23    11    12 1   
    24    11    35 1   
    25    12    13 1   
    26    12    36 1   
    27    13    14 ar  
    28    13    19 ar  
    29    14    15 ar  
    30    14    37 1   
    31    15    16 ar  
    32    15    38 1   
    33    16    17 ar  
    34    16    39 1   
    35    17    18 1   
    36    17    19 ar  
    37    18    40 1   
    38    18    41 1   
    39    20    21 2   
    40    20    22 1   
    41    22    23 1   
    42    23    24 1   
    43    23    42 1   
    44    23    43 1   
    45    24    25 1   
    46    24    44 1   
@<TRIPOS>SUBSTRUCTURE
     1 5ZA         1 TEMP              0 ****  ****    0 ROOT
