@<TRIPOS>MOLECULE
5ZA
   44    46     1     0     0
SMALL
bcc


@<TRIPOS>ATOM
      1 C25         -4.6450     2.9290    -0.2880 c3         1 5ZA      -0.129100
      2 C23         -3.5160     1.9200    -0.4230 c3         1 5ZA       0.098100
      3 O24         -2.5010     2.3780    -1.2900 oh         1 5ZA      -0.594800
      4 C22         -2.8490     1.6240     0.9400 c3         1 5ZA       0.155200
      5 N26         -2.2020     2.7510     1.5790 n8         1 5ZA      -0.882800
      6 C14         -1.8500     0.5220     0.7650 cc         1 5ZA       0.495900
      7 N13         -0.5820     0.7240     0.6460 nd         1 5ZA      -0.647300
      8 C12         -0.0120    -0.5220     0.4280 cd         1 5ZA      -0.002600
      9 C11          1.2950    -0.8020     0.2230 ce         1 5ZA      -0.017000
     10 C7           2.3900     0.1180     0.1870 cc         1 5ZA      -0.102200
     11 C8           2.3000     1.4960     0.2940 cd         1 5ZA      -0.067100
     12 N9           3.5220     2.0450     0.1580 na         1 5ZA      -0.171400
     13 C6           4.4630     1.0700    -0.0450 ca         1 5ZA      -0.037200
     14 C5           5.8320     1.2080    -0.2690 ca         1 5ZA      -0.189000
     15 C4           6.5380     0.0400    -0.4680 ca         1 5ZA      -0.085000
     16 C3           5.9140    -1.2120    -0.4220 ca         1 5ZA      -0.245000
     17 C2           4.5490    -1.3480    -0.1900 ca         1 5ZA       0.186600
     18 N10          3.9460    -2.5970    -0.1800 nv         1 5ZA      -0.797200
     19 C1           3.7950    -0.1680    -0.0200 ca         1 5ZA      -0.112800
     20 C16         -1.0740    -1.5410     0.4370 c          1 5ZA       0.687700
     21 O17         -1.0240    -2.7510     0.3030 o          1 5ZA      -0.591500
     22 N15         -2.2120    -0.8050     0.6770 n          1 5ZA      -0.377300
     23 C18         -3.5190    -1.4060     0.7360 c3         1 5ZA      -0.049000
     24 C19         -4.0930    -1.8090    -0.6420 c          1 5ZA       0.923600
     25 O21         -3.4840    -1.4250    -1.6510 o          1 5ZA      -0.822300
     26 H251        -5.1300     3.0910    -1.2530 hc         1 5ZA       0.033033
     27 H252        -5.4100     2.5710     0.4030 hc         1 5ZA       0.033033
     28 H253        -4.2880     3.8970     0.0670 hc         1 5ZA       0.033033
     29 H23         -3.9400     0.9830    -0.8000 h1         1 5ZA       0.099700
     30 H24         -2.8850     2.4900    -2.1640 ho         1 5ZA       0.404000
     31 H22         -3.6470     1.2780     1.6060 h1         1 5ZA       0.072700
     32 H261        -1.4740     3.1130     0.9770 hn         1 5ZA       0.347300
     33 H262        -2.8710     3.4970     1.7140 hn         1 5ZA       0.347300
     34 H11          1.5150    -1.8470     0.0400 ha         1 5ZA       0.139000
     35 H8           1.4230     2.1030     0.4490 h4         1 5ZA       0.200000
     36 HN9          3.7100     3.0340     0.1880 hn         1 5ZA       0.290700
     37 H5           6.3090     2.1790    -0.2910 ha         1 5ZA       0.123000
     38 H4           7.6050     0.0850    -0.6480 ha         1 5ZA       0.115000
     39 H3           6.5130    -2.1050    -0.5590 ha         1 5ZA       0.118000
     40 H101         4.6050    -3.3610    -0.1880 hn         1 5ZA       0.382800
     41 H102         3.2780    -2.7400     0.5620 hn         1 5ZA       0.382800
     42 H181        -3.4670    -2.2860     1.3790 h1         1 5ZA       0.037200
     43 H182        -4.2080    -0.7170     1.2270 h1         1 5ZA       0.037200
     44 OXT         -5.1420    -2.4770    -0.5810 o          1 5ZA      -0.822300
@<TRIPOS>BOND
     1     1     2 1   
     2     1    26 1   
     3     1    27 1   
     4     1    28 1   
     5     2     3 1   
     6     2     4 1   
     7     2    29 1   
     8     3    30 1   
     9     4     5 1   
    10     4     6 1   
    11     4    31 1   
    12     5    32 1   
    13     5    33 1   
    14     6     7 2   
    15     6    22 1   
    16     7     8 1   
    17     8     9 2   
    18     8    20 1   
    19     9    10 1   
    20     9    34 1   
    21    10    11 2   
    22    10    19 1   
    23    11    12 1   
    24    11    35 1   
    25    12    13 1   
    26    12    36 1   
    27    13    14 ar  
    28    13    19 ar  
    29    14    15 ar  
    30    14    37 1   
    31    15    16 ar  
    32    15    38 1   
    33    16    17 ar  
    34    16    39 1   
    35    17    18 1   
    36    17    19 ar  
    37    18    40 1   
    38    18    41 1   
    39    20    21 2   
    40    20    22 1   
    41    22    23 1   
    42    23    24 1   
    43    23    42 1   
    44    23    43 1   
    45    24    25 1   
    46    24    44 1   
@<TRIPOS>SUBSTRUCTURE
     1 5ZA         1 TEMP              0 ****  ****    0 ROOT
