@<TRIPOS>MOLECULE
5ZB
   59    62     1     0     0
SMALL
No Charge or Current Charge


@<TRIPOS>ATOM
      1 C10        -22.6880    -3.4490    17.8710 cc         1 5ZB      -0.176500
      2 C13        -19.3250    -3.1160    14.7850 ca         1 5ZB      -0.120000
      3 C15        -19.2980    -0.0390    11.0310 c3         1 5ZB       0.099000
      4 C17        -16.7720    -0.0980    10.6610 ca         1 5ZB       0.377900
      5 C20        -16.9620     1.3200     8.3170 ca         1 5ZB      -0.165000
      6 C21        -18.1450     1.0310     9.0160 ca         1 5ZB      -0.056000
      7 C22        -19.3610     0.9360    12.2430 c          1 5ZB       0.595100
      8 C24        -20.7300     2.7450    13.3210 c3         1 5ZB       0.161000
      9 C26        -21.5550     2.0460    14.4020 ca         1 5ZB      -0.109300
     10 C28        -21.7090     1.1000    16.6500 ca         1 5ZB      -0.118000
     11 C02        -19.4440    -2.4450    10.3360 c          1 5ZB       0.605100
     12 C04        -19.7300    -1.8270    12.7490 ca         1 5ZB      -0.072000
     13 C05        -21.0090    -1.4920    13.2370 ca         1 5ZB      -0.079000
     14 C06        -21.4180    -1.9140    14.5120 ca         1 5ZB      -0.120000
     15 C07        -20.5720    -2.7190    15.2990 ca         1 5ZB       0.025800
     16 N08        -20.9610    -3.1300    16.5740 na         1 5ZB       0.118200
     17 C09        -22.1670    -3.8280    16.6610 cd         1 5ZB      -0.189000
     18 C11        -21.8670    -2.4470    18.4390 cc         1 5ZB      -0.176500
     19 C12        -20.8210    -2.1880    17.5920 cd         1 5ZB      -0.189000
     20 C14        -18.9180    -2.6930    13.5070 ca         1 5ZB      -0.079000
     21 C16        -18.0490     0.3020    10.2160 ca         1 5ZB      -0.133300
     22 N18        -15.6290     0.1800     9.9870 nb         1 5ZB      -0.670000
     23 C19        -15.7330     0.8780     8.8330 ca         1 5ZB       0.342900
     24 N23        -20.4280     1.8130    12.2380 ns         1 5ZB      -0.499900
     25 C25        -21.4110     4.0120    12.7680 c3         1 5ZB      -0.102100
     26 C27        -20.9680     1.7520    15.6500 ca         1 5ZB      -0.092500
     27 C29        -23.0420     0.7300    16.4110 ca         1 5ZB      -0.096000
     28 C30        -23.6330     1.0100    15.1680 ca         1 5ZB      -0.118000
     29 C31        -22.8930     1.6620    14.1660 ca         1 5ZB      -0.092500
     30 O32        -18.5100     0.9640    13.1250 o          1 5ZB      -0.580100
     31 C33        -19.6070    -3.9290    10.6810 c3         1 5ZB      -0.172100
     32 H1         -23.6180    -3.8050    18.3070 ha         1 5ZB       0.134000
     33 H2         -18.6720    -3.7550    15.3750 ha         1 5ZB       0.130000
     34 H3         -20.1770     0.1760    10.4100 h1         1 5ZB       0.062700
     35 H4         -16.6560    -0.6610    11.5860 h4         1 5ZB       0.022100
     36 H5         -16.9900     1.8780     7.3860 ha         1 5ZB       0.122000
     37 H6         -19.1080     1.3630     8.6330 ha         1 5ZB       0.113000
     38 H7         -19.7790     3.0690    13.7680 h1         1 5ZB       0.080700
     39 H9         -21.6880    -0.8940    12.6330 ha         1 5ZB       0.126500
     40 H10        -22.3950    -1.6220    14.8870 ha         1 5ZB       0.130000
     41 H11        -22.5300    -4.5030    15.8950 h4         1 5ZB       0.147500
     42 H12        -22.0810    -1.9290    19.3700 ha         1 5ZB       0.134000
     43 H13        -20.0280    -1.4510    17.6250 h4         1 5ZB       0.147500
     44 H14        -17.9520    -3.0130    13.1210 ha         1 5ZB       0.126500
     45 H15        -14.8020     1.0890     8.3090 h4         1 5ZB       0.017100
     46 H16        -21.0800     1.7480    11.4660 hn         1 5ZB       0.313500
     47 H17        -21.6390     4.7080    13.5840 hc         1 5ZB       0.044700
     48 H18        -20.7470     4.5240    12.0600 hc         1 5ZB       0.044700
     49 H19        -22.3440     3.7720    12.2470 hc         1 5ZB       0.044700
     50 H20        -19.9340     2.0270    15.8450 ha         1 5ZB       0.113000
     51 H21        -23.6130     0.2200    17.1850 ha         1 5ZB       0.121000
     52 H22        -24.6630     0.7170    14.9780 ha         1 5ZB       0.112500
     53 H23        -23.3610     1.8620    13.2060 ha         1 5ZB       0.113000
     54 H24        -19.7550    -4.5500     9.7900 hc         1 5ZB       0.065033
     55 H25        -18.7270    -4.2620    11.2390 hc         1 5ZB       0.065033
     56 H26        -20.4210    -4.0570    11.4030 hc         1 5ZB       0.065033
     57 N03        -19.3790    -1.4940    11.3940 n          1 5ZB      -0.247400
     58 H8         -21.2490     0.8800    17.6100 ha         1 5ZB       0.112500
     59 O01        -19.3760    -2.1110     9.1590 o          1 5ZB      -0.581100
@<TRIPOS>BOND
     1     1    17 2   
     2     1    18 1   
     3     1    32 1   
     4     2    15 ar  
     5     2    20 ar  
     6     2    33 1   
     7     3     7 1   
     8     3    21 1   
     9     3    34 1   
    10     3    57 1   
    11     4    21 ar  
    12     4    22 ar  
    13     4    35 1   
    14     5     6 ar  
    15     5    23 ar  
    16     5    36 1   
    17     6    21 ar  
    18     6    37 1   
    19     7    24 1   
    20     7    30 2   
    21     8     9 1   
    22     8    24 1   
    23     8    25 1   
    24     8    38 1   
    25     9    26 ar  
    26     9    29 ar  
    27    10    26 ar  
    28    10    27 ar  
    29    10    58 1   
    30    11    31 1   
    31    11    57 1   
    32    11    59 2   
    33    12    13 ar  
    34    12    20 ar  
    35    12    57 1   
    36    13    14 ar  
    37    13    39 1   
    38    14    15 ar  
    39    14    40 1   
    40    15    16 1   
    41    16    17 1   
    42    16    19 1   
    43    17    41 1   
    44    18    19 2   
    45    18    42 1   
    46    19    43 1   
    47    20    44 1   
    48    22    23 ar  
    49    23    45 1   
    50    24    46 1   
    51    25    47 1   
    52    25    48 1   
    53    25    49 1   
    54    26    50 1   
    55    27    28 ar  
    56    27    51 1   
    57    28    29 ar  
    58    28    52 1   
    59    29    53 1   
    60    31    54 1   
    61    31    55 1   
    62    31    56 1   
@<TRIPOS>SUBSTRUCTURE
     1 5ZB         1 TEMP              0 ****  ****    0 ROOT
