@<TRIPOS>MOLECULE
5ZB
   59    62     1     0     0
SMALL
abcg2


@<TRIPOS>ATOM
      1 C10        -22.6140    -3.2180    18.1230 cc         1 5ZB      -0.176500
      2 C13        -19.5060    -2.4090    14.8260 ca         1 5ZB      -0.120000
      3 C15        -19.3090    -0.0160    10.8550 c3         1 5ZB       0.099000
      4 C17        -16.8020    -0.3900    10.7250 ca         1 5ZB       0.377900
      5 C20        -16.5390     1.3900     8.7010 ca         1 5ZB      -0.165000
      6 C21        -17.8040     1.1380     9.2080 ca         1 5ZB      -0.056000
      7 C22        -19.4510     0.9070    12.0760 c          1 5ZB       0.595100
      8 C24        -20.8890     2.5720    13.1680 c3         1 5ZB       0.161000
      9 C26        -21.5240     1.8720    14.3520 ca         1 5ZB      -0.109300
     10 C28        -21.3610     1.0340    16.6140 ca         1 5ZB      -0.118000
     11 C02        -19.5360    -2.3410    10.2490 c          1 5ZB       0.605100
     12 C04        -19.9630    -1.7330    12.5630 ca         1 5ZB      -0.072000
     13 C05        -21.3170    -1.6760    12.8640 ca         1 5ZB      -0.079000
     14 C06        -21.7680    -1.9690    14.1390 ca         1 5ZB      -0.120000
     15 C07        -20.8630    -2.3320    15.1310 ca         1 5ZB       0.025800
     16 N08        -21.3110    -2.6110    16.4320 na         1 5ZB       0.118200
     17 C09        -22.5400    -3.1220    16.7610 cd         1 5ZB      -0.189000
     18 C11        -21.3830    -2.7380    18.6460 cc         1 5ZB      -0.176500
     19 C12        -20.6050    -2.3740    17.5820 cd         1 5ZB      -0.189000
     20 C14        -19.0620    -2.0990    13.5530 ca         1 5ZB      -0.079000
     21 C16        -17.9510     0.2280    10.2450 ca         1 5ZB      -0.133300
     22 N18        -15.5870    -0.1590    10.2460 nb         1 5ZB      -0.670000
     23 C19        -15.4620     0.7170     9.2550 ca         1 5ZB       0.342900
     24 N23        -20.5760     1.6310    12.1010 ns         1 5ZB      -0.499900
     25 C25        -21.7450     3.7010    12.6110 c3         1 5ZB      -0.102100
     26 C27        -20.7990     1.6870    15.5240 ca         1 5ZB      -0.092500
     27 C29        -22.6610     0.5570    16.5440 ca         1 5ZB      -0.096000
     28 C30        -23.3940     0.7390    15.3780 ca         1 5ZB      -0.118000
     29 C31        -22.8290     1.3870    14.2900 ca         1 5ZB      -0.092500
     30 O32        -18.5720     0.9780    12.9170 o          1 5ZB      -0.580100
     31 C33        -19.8030    -3.7680    10.6520 c3         1 5ZB      -0.172100
     32 H1         -23.4530    -3.6000    18.6830 ha         1 5ZB       0.134000
     33 H2         -18.7910    -2.7180    15.5770 ha         1 5ZB       0.130000
     34 H3         -20.0670     0.2520    10.1110 h1         1 5ZB       0.062700
     35 H4         -16.8680    -1.1170    11.5260 h4         1 5ZB       0.022100
     36 H5         -16.3900     2.0890     7.8900 ha         1 5ZB       0.122000
     37 H6         -18.6710     1.6410     8.7960 ha         1 5ZB       0.113000
     38 H7         -19.9410     3.0010    13.4990 h1         1 5ZB       0.080700
     39 H9         -22.0260    -1.3840    12.1000 ha         1 5ZB       0.126500
     40 H10        -22.8220    -1.8850    14.3600 ha         1 5ZB       0.130000
     41 H11        -23.2500    -3.4070    16.0020 h4         1 5ZB       0.147500
     42 H12        -21.1040    -2.6610    19.6850 ha         1 5ZB       0.134000
     43 H13        -19.6230    -1.9310    17.5570 h4         1 5ZB       0.147500
     44 H14        -18.0060    -2.1590    13.3270 ha         1 5ZB       0.126500
     45 H15        -14.4580     0.8880     8.8820 h4         1 5ZB       0.017100
     46 H16        -21.2730     1.4790    11.3870 hn         1 5ZB       0.313500
     47 H17        -21.9780     4.4160    13.3990 hc         1 5ZB       0.044700
     48 H18        -21.2140     4.2290    11.8190 hc         1 5ZB       0.044700
     49 H19        -22.6880     3.3370    12.2000 hc         1 5ZB       0.044700
     50 H20        -19.7830     2.0590    15.5900 ha         1 5ZB       0.113000
     51 H21        -23.0980     0.0400    17.3890 ha         1 5ZB       0.121000
     52 H22        -24.4090     0.3670    15.3130 ha         1 5ZB       0.112500
     53 H23        -23.4160     1.5080    13.3870 ha         1 5ZB       0.113000
     54 H24        -19.6490    -4.4140     9.7910 hc         1 5ZB       0.065033
     55 H25        -19.1510    -4.0940    11.4610 hc         1 5ZB       0.065033
     56 H26        -20.8300    -3.8920    10.9970 hc         1 5ZB       0.065033
     57 N03        -19.5110    -1.4110    11.2520 n          1 5ZB      -0.247400
     58 H8         -20.7800     0.8940    17.5170 ha         1 5ZB       0.112500
     59 O01        -19.3420    -2.0160     9.0910 o          1 5ZB      -0.581100
@<TRIPOS>BOND
     1     1    17 2   
     2     1    18 1   
     3     1    32 1   
     4     2    15 ar  
     5     2    20 ar  
     6     2    33 1   
     7     3     7 1   
     8     3    21 1   
     9     3    34 1   
    10     3    57 1   
    11     4    21 ar  
    12     4    22 ar  
    13     4    35 1   
    14     5     6 ar  
    15     5    23 ar  
    16     5    36 1   
    17     6    21 ar  
    18     6    37 1   
    19     7    24 1   
    20     7    30 2   
    21     8     9 1   
    22     8    24 1   
    23     8    25 1   
    24     8    38 1   
    25     9    26 ar  
    26     9    29 ar  
    27    10    26 ar  
    28    10    27 ar  
    29    10    58 1   
    30    11    31 1   
    31    11    57 1   
    32    11    59 2   
    33    12    13 ar  
    34    12    20 ar  
    35    12    57 1   
    36    13    14 ar  
    37    13    39 1   
    38    14    15 ar  
    39    14    40 1   
    40    15    16 1   
    41    16    17 1   
    42    16    19 1   
    43    17    41 1   
    44    18    19 2   
    45    18    42 1   
    46    19    43 1   
    47    20    44 1   
    48    22    23 ar  
    49    23    45 1   
    50    24    46 1   
    51    25    47 1   
    52    25    48 1   
    53    25    49 1   
    54    26    50 1   
    55    27    28 ar  
    56    27    51 1   
    57    28    29 ar  
    58    28    52 1   
    59    29    53 1   
    60    31    54 1   
    61    31    55 1   
    62    31    56 1   
@<TRIPOS>SUBSTRUCTURE
     1 5ZB         1 TEMP              0 ****  ****    0 ROOT
