@<TRIPOS>MOLECULE
5ZD
   30    30     1     0     0
SMALL
abcg2


@<TRIPOS>ATOM
      1 C10         17.0660     5.9540    43.0440 c3         1 5ZD      -0.072400
      2 C12         18.8590     4.1230    43.1470 c3         1 5ZD      -0.071400
      3 C02         14.0700     9.3750    44.1810 cc         1 5ZD       0.655300
      4 N03         14.7250     9.9410    43.2250 nd         1 5ZD      -0.664000
      5 C04         15.4200     9.0250    42.4620 cd         1 5ZD       0.282500
      6 C05         16.2430     9.5280    41.2860 c          1 5ZD       0.627500
      7 O06         17.0970     8.7440    40.8250 o          1 5ZD      -0.702500
      8 O07         15.9890    10.6790    40.8920 o          1 5ZD      -0.702500
      9 C08         15.2750     7.7220    42.8320 cc         1 5ZD      -0.188300
     10 C09         15.8320     6.4490    42.2860 c3         1 5ZD       0.016900
     11 C11         17.6010     4.6510    42.4630 c3         1 5ZD      -0.072400
     12 C13         18.6550     3.7040    44.5990 c3         1 5ZD      -0.077400
     13 C14         19.8970     3.0690    45.2080 c3         1 5ZD      -0.087100
     14 S15         14.2270     7.6420    44.2240 ss         1 5ZD      -0.275400
     15 H1          17.8410     6.7250    43.0000 hc         1 5ZD       0.046200
     16 H2          16.8150     5.8260    44.1000 hc         1 5ZD       0.046200
     17 H3          19.2310     3.2630    42.5820 hc         1 5ZD       0.031700
     18 H4          19.6480     4.8810    43.0950 hc         1 5ZD       0.031700
     19 H5          13.1190    10.9860    44.8920 hn         1 5ZD       0.448000
     20 H6          12.5980     9.5420    45.5710 hn         1 5ZD       0.448000
     21 H8          15.0630     5.6710    42.3130 hc         1 5ZD       0.052200
     22 H9          16.0900     6.6030    41.2400 hc         1 5ZD       0.052200
     23 H10         16.8180     3.8860    42.5100 hc         1 5ZD       0.032700
     24 H11         17.8120     4.8010    41.3990 hc         1 5ZD       0.032700
     25 H12         18.3590     4.5670    45.2010 hc         1 5ZD       0.038700
     26 H13         17.8190     2.9980    44.6530 hc         1 5ZD       0.038700
     27 H14         19.7290     2.7730    46.2440 hc         1 5ZD       0.023700
     28 H15         20.1970     2.1770    44.6540 hc         1 5ZD       0.023700
     29 H16         20.7410     3.7620    45.1960 hc         1 5ZD       0.023700
     30 N01         13.3600    10.0380    45.1390 nv         1 5ZD      -1.037900
@<TRIPOS>BOND
     1     1    10 1   
     2     1    11 1   
     3     1    15 1   
     4     1    16 1   
     5     2    11 1   
     6     2    12 1   
     7     2    17 1   
     8     2    18 1   
     9     3     4 2   
    10     3    14 1   
    11     3    30 1   
    12     4     5 1   
    13     5     6 1   
    14     5     9 2   
    15     6     7 1   
    16     6     8 1   
    17     9    10 1   
    18     9    14 1   
    19    10    21 1   
    20    10    22 1   
    21    11    23 1   
    22    11    24 1   
    23    12    13 1   
    24    12    25 1   
    25    12    26 1   
    26    13    27 1   
    27    13    28 1   
    28    13    29 1   
    29    19    30 1   
    30    20    30 1   
@<TRIPOS>SUBSTRUCTURE
     1 5ZD         1 TEMP              0 ****  ****    0 ROOT
