@<TRIPOS>MOLECULE
5ZD
   30    30     1     0     0
SMALL
No Charge or Current Charge


@<TRIPOS>ATOM
      1 C10         16.9690     5.9300    43.0170 c3         1 5ZD      -0.072400
      2 C12         18.8220     4.1030    43.0800 c3         1 5ZD      -0.071400
      3 C02         13.9690     9.3530    44.1670 cc         1 5ZD       0.655300
      4 N03         14.7740     9.9780    43.3620 nd         1 5ZD      -0.664000
      5 C04         15.5060     9.0510    42.5930 cd         1 5ZD       0.282500
      6 C05         16.5610     9.4470    41.5430 c          1 5ZD       0.627500
      7 O06         17.1710     8.5960    40.9070 o          1 5ZD      -0.702500
      8 O07         16.7820    10.6400    41.3570 o          1 5ZD      -0.702500
      9 C08         15.1670     7.7220    42.8890 cc         1 5ZD      -0.188300
     10 C09         15.6830     6.4200    42.3170 c3         1 5ZD       0.016900
     11 C11         17.4910     4.5850    42.4560 c3         1 5ZD      -0.072400
     12 C13         18.7340     3.7420    44.5810 c3         1 5ZD      -0.077400
     13 C14         20.0550     3.1820    45.1440 c3         1 5ZD      -0.087100
     14 S15         13.9440     7.6320    44.1320 ss         1 5ZD      -0.275400
     15 H1          17.7510     6.6920    42.9140 hc         1 5ZD       0.046200
     16 H2          16.7630     5.8260    44.0890 hc         1 5ZD       0.046200
     17 H3          19.1610     3.2180    42.5250 hc         1 5ZD       0.031700
     18 H4          19.5890     4.8740    42.9350 hc         1 5ZD       0.031700
     19 H5          13.0800    11.0450    44.7330 hn         1 5ZD       0.448000
     20 H6          12.3680     9.5990    45.3560 hn         1 5ZD       0.448000
     21 H8          14.9130     5.6470    42.4320 hc         1 5ZD       0.052200
     22 H9          15.8470     6.5010    41.2370 hc         1 5ZD       0.052200
     23 H10         16.7260     3.8110    42.5960 hc         1 5ZD       0.032700
     24 H11         17.6360     4.6890    41.3740 hc         1 5ZD       0.032700
     25 H12         18.4580     4.6300    45.1620 hc         1 5ZD       0.038700
     26 H13         17.9400     3.0000    44.7320 hc         1 5ZD       0.038700
     27 H14         19.9460     2.9440    46.2080 hc         1 5ZD       0.023700
     28 H15         20.3450     2.2670    44.6150 hc         1 5ZD       0.023700
     29 H16         20.8630     3.9160    45.0370 hc         1 5ZD       0.023700
     30 N01         13.1810    10.0660    44.9740 nv         1 5ZD      -1.037900
@<TRIPOS>BOND
     1     1    10 1   
     2     1    11 1   
     3     1    15 1   
     4     1    16 1   
     5     2    11 1   
     6     2    12 1   
     7     2    17 1   
     8     2    18 1   
     9     3     4 2   
    10     3    14 1   
    11     3    30 1   
    12     4     5 1   
    13     5     6 1   
    14     5     9 2   
    15     6     7 1   
    16     6     8 1   
    17     9    10 1   
    18     9    14 1   
    19    10    21 1   
    20    10    22 1   
    21    11    23 1   
    22    11    24 1   
    23    12    13 1   
    24    12    25 1   
    25    12    26 1   
    26    13    27 1   
    27    13    28 1   
    28    13    29 1   
    29    19    30 1   
    30    20    30 1   
@<TRIPOS>SUBSTRUCTURE
     1 5ZD         1 TEMP              0 ****  ****    0 ROOT
