@<TRIPOS>MOLECULE
5ZE
   18    18     1     0     0
SMALL
No Charge or Current Charge


@<TRIPOS>ATOM
      1 C1           2.5630     1.3460     0.0310 c3         1 5ZE      -0.151400
      2 C2           1.2110     0.6580     0.0390 ca         1 5ZE       0.171300
      3 C3           0.0100     1.3890     0.0370 ca         1 5ZE      -0.284000
      4 C4          -1.1960     0.6670     0.0400 ca         1 5ZE       0.171300
      5 C5          -2.5430     1.3640     0.0330 c3         1 5ZE      -0.151400
      6 N6          -1.2010    -0.6810     0.0380 nb         1 5ZE      -0.257000
      7 C7           0.0000    -1.2780     0.0390 ca         1 5ZE       0.380900
      8 N8          -0.0040    -2.6330     0.0360 nv         1 5ZE      -1.062900
      9 N9           1.2060    -0.6900     0.0370 nb         1 5ZE      -0.257000
     10 H1           2.9800     1.3720    -0.9820 hc         1 5ZE       0.054200
     11 H2           2.4860     2.3800     0.3890 hc         1 5ZE       0.054200
     12 H3           3.2790     0.8250     0.6780 hc         1 5ZE       0.054200
     13 H4           0.0140     2.4760     0.0320 ha         1 5ZE       0.130000
     14 H5          -2.9620     1.3920    -0.9790 hc         1 5ZE       0.054200
     15 H6          -3.2620     0.8490     0.6810 hc         1 5ZE       0.054200
     16 H7          -2.4590     2.3970     0.3900 hc         1 5ZE       0.054200
     17 H8          -0.8740    -3.1140    -0.1850 hn         1 5ZE       0.492000
     18 H9           0.8590    -3.1240    -0.1850 hn         1 5ZE       0.492000
@<TRIPOS>BOND
     1     1     2 1   
     2     1    10 1   
     3     1    11 1   
     4     1    12 1   
     5     2     3 ar  
     6     2     9 ar  
     7     3     4 ar  
     8     3    13 1   
     9     4     5 1   
    10     4     6 ar  
    11     5    14 1   
    12     5    15 1   
    13     5    16 1   
    14     6     7 ar  
    15     7     8 1   
    16     7     9 ar  
    17     8    17 1   
    18     8    18 1   
@<TRIPOS>SUBSTRUCTURE
     1 5ZE         1 TEMP              0 ****  ****    0 ROOT
