@<TRIPOS>MOLECULE
5ZE
   18    18     1     0     0
SMALL
abcg2


@<TRIPOS>ATOM
      1 C1           2.5270     1.3350     0.0460 c3         1 5ZE      -0.151400
      2 C2           1.1930     0.6610     0.0450 ca         1 5ZE       0.171300
      3 C3           0.0090     1.3880     0.0780 ca         1 5ZE      -0.284000
      4 C4          -1.1810     0.6710     0.0590 ca         1 5ZE       0.171300
      5 C5          -2.5090     1.3560     0.0590 c3         1 5ZE      -0.151400
      6 N6          -1.1890    -0.6550     0.0220 nb         1 5ZE      -0.257000
      7 C7          -0.0010    -1.2600    -0.0090 ca         1 5ZE       0.380900
      8 N8          -0.0030    -2.6130    -0.0270 nv         1 5ZE      -1.062900
      9 N9           1.1910    -0.6630    -0.0010 nb         1 5ZE      -0.257000
     10 H1           3.0550     1.1330    -0.8860 hc         1 5ZE       0.054200
     11 H2           2.4370     2.4140     0.1590 hc         1 5ZE       0.054200
     12 H3           3.1480     0.9530     0.8560 hc         1 5ZE       0.054200
     13 H4           0.0120     2.4680     0.1110 ha         1 5ZE       0.130000
     14 H5          -3.0030     1.2190    -0.9040 hc         1 5ZE       0.054200
     15 H6          -3.1630     0.9310     0.8190 hc         1 5ZE       0.054200
     16 H7          -2.4140     2.4250     0.2390 hc         1 5ZE       0.054200
     17 H8          -0.8600    -3.0850    -0.2510 hn         1 5ZE       0.492000
     18 H9           0.8560    -3.0820    -0.2460 hn         1 5ZE       0.492000
@<TRIPOS>BOND
     1     1     2 1   
     2     1    10 1   
     3     1    11 1   
     4     1    12 1   
     5     2     3 ar  
     6     2     9 ar  
     7     3     4 ar  
     8     3    13 1   
     9     4     5 1   
    10     4     6 ar  
    11     5    14 1   
    12     5    15 1   
    13     5    16 1   
    14     6     7 ar  
    15     7     8 1   
    16     7     9 ar  
    17     8    17 1   
    18     8    18 1   
@<TRIPOS>SUBSTRUCTURE
     1 5ZE         1 TEMP              0 ****  ****    0 ROOT
