@<TRIPOS>MOLECULE
5ZF
   61    64     1     0     0
SMALL
abcg2


@<TRIPOS>ATOM
      1 C10         13.0940    -3.0170    26.1020 ca         1 5ZF      -0.113000
      2 C13         13.1420    -1.6610    23.6860 ca         1 5ZF      -0.097500
      3 C15          9.4400    -1.6250    21.3850 ca         1 5ZF      -0.098000
      4 C17          6.2420     0.7110    19.8170 ca         1 5ZF      -0.138300
      5 C20          5.5970     1.3380    17.2480 ca         1 5ZF       0.344900
      6 C21          4.8710     1.9210    18.2750 ca         1 5ZF      -0.166000
      7 C22          5.2030     1.5980    19.5810 ca         1 5ZF      -0.055000
      8 C26          7.8950     4.1790    23.8580 c3         1 5ZF      -0.102100
      9 C28         10.9860     2.2900    23.6090 ca         1 5ZF      -0.092000
     10 C02          6.1220    -1.9500    21.1980 c          1 5ZF       0.598100
     11 C04          8.2870    -1.3090    22.0900 ca         1 5ZF      -0.075000
     12 C05          8.3180    -1.2700    23.4780 ca         1 5ZF      -0.098000
     13 C06          9.4950    -1.5430    24.1540 ca         1 5ZF      -0.092500
     14 C07         10.6630    -1.8560    23.4600 cp         1 5ZF      -0.017000
     15 C08         11.9210    -2.1160    24.1870 cp         1 5ZF      -0.038000
     16 C09         11.9160    -2.8000    25.4040 ca         1 5ZF      -0.097500
     17 C11         14.3020    -2.5550    25.5960 ca         1 5ZF      -0.105000
     18 C12         14.3200    -1.8780    24.3840 ca         1 5ZF      -0.113000
     19 C14         10.6130    -1.9000    22.0650 ca         1 5ZF      -0.092500
     20 C16          6.6640     0.3950    21.2290 c3         1 5ZF       0.099000
     21 C18          6.9050     0.1860    18.7130 ca         1 5ZF       0.380900
     22 N19          6.5930     0.4840    17.4590 nb         1 5ZF      -0.669000
     23 C23          7.8310     1.3340    21.5790 c          1 5ZF       0.597100
     24 N24          7.6480     2.0630    22.6860 ns         1 5ZF      -0.499900
     25 C25          8.6210     3.0350    23.1620 c3         1 5ZF       0.159000
     26 C27          9.6680     2.3840    24.0420 ca         1 5ZF      -0.107300
     27 C29         11.9550     1.6920    24.4050 ca         1 5ZF      -0.115000
     28 C30         11.6140     1.1810    25.6490 ca         1 5ZF      -0.098000
     29 C31         10.3000     1.2720    26.0910 ca         1 5ZF      -0.115000
     30 C32          9.3340     1.8650    25.2910 ca         1 5ZF      -0.092000
     31 O33          8.8070     1.4190    20.8560 o          1 5ZF      -0.578100
     32 C34          6.5750    -3.3800    21.4640 c3         1 5ZF       0.030600
     33 CL35         5.3010    -4.5360    21.0240 cl         1 5ZF      -0.227000
     34 H1          13.0690    -3.5540    27.0420 ha         1 5ZF       0.114000
     35 H2          13.1700    -1.1070    22.7560 ha         1 5ZF       0.115000
     36 H3           9.4160    -1.6630    20.3030 ha         1 5ZF       0.124000
     37 H5           4.0640     2.6060    18.0560 ha         1 5ZF       0.123000
     38 H6           4.6540     2.0280    20.4110 ha         1 5ZF       0.113000
     39 H7           8.6120     4.9250    24.1950 hc         1 5ZF       0.044700
     40 H8           7.1960     4.6620    23.1750 hc         1 5ZF       0.044700
     41 H9           7.3360     3.8340    24.7290 hc         1 5ZF       0.044700
     42 H10         11.2580     2.6900    22.6390 ha         1 5ZF       0.112000
     43 H11          7.4210    -1.0160    24.0290 ha         1 5ZF       0.124000
     44 H12          9.5070    -1.4780    25.2330 ha         1 5ZF       0.122000
     45 H13         10.9850    -3.1810    25.8050 ha         1 5ZF       0.115000
     46 H14         15.2220    -2.7210    26.1420 ha         1 5ZF       0.115000
     47 H15         15.2550    -1.5070    23.9830 ha         1 5ZF       0.114000
     48 H16         11.5000    -2.1610    21.5010 ha         1 5ZF       0.122000
     49 H17          5.8200     0.6000    21.8950 h1         1 5ZF       0.060700
     50 H18          7.7150    -0.5230    18.8480 h4         1 5ZF       0.025100
     51 H19          6.8280     1.9040    23.2510 hn         1 5ZF       0.313500
     52 H20          9.1240     3.4330    22.2790 h1         1 5ZF       0.081700
     53 H21         12.9760     1.6210    24.0510 ha         1 5ZF       0.112000
     54 H22         12.3670     0.7110    26.2690 ha         1 5ZF       0.115000
     55 H23         10.0250     0.8730    27.0590 ha         1 5ZF       0.112000
     56 H24          8.3120     1.9210    25.6480 ha         1 5ZF       0.112000
     57 H25          6.8110    -3.5240    22.5180 h1         1 5ZF       0.086700
     58 H26          7.4660    -3.6230    20.8860 h1         1 5ZF       0.086700
     59 N03          7.0760    -1.0000    21.4030 n          1 5ZF      -0.242400
     60 H4           5.3630     1.5660    16.2140 h4         1 5ZF       0.018100
     61 O01          5.0040    -1.6790    20.8210 o          1 5ZF      -0.549100
@<TRIPOS>BOND
     1     1    16 ar  
     2     1    17 ar  
     3     1    34 1   
     4     2    15 ar  
     5     2    18 ar  
     6     2    35 1   
     7     3    11 ar  
     8     3    19 ar  
     9     3    36 1   
    10     4     7 ar  
    11     4    20 1   
    12     4    21 ar  
    13     5     6 ar  
    14     5    22 ar  
    15     5    60 1   
    16     6     7 ar  
    17     6    37 1   
    18     7    38 1   
    19     8    25 1   
    20     8    39 1   
    21     8    40 1   
    22     8    41 1   
    23     9    26 ar  
    24     9    27 ar  
    25     9    42 1   
    26    10    32 1   
    27    10    59 1   
    28    10    61 2   
    29    11    12 ar  
    30    11    59 1   
    31    12    13 ar  
    32    12    43 1   
    33    13    14 ar  
    34    13    44 1   
    35    14    15 1   
    36    14    19 ar  
    37    15    16 ar  
    38    16    45 1   
    39    17    18 ar  
    40    17    46 1   
    41    18    47 1   
    42    19    48 1   
    43    20    23 1   
    44    20    49 1   
    45    20    59 1   
    46    21    22 ar  
    47    21    50 1   
    48    23    24 1   
    49    23    31 2   
    50    24    25 1   
    51    24    51 1   
    52    25    26 1   
    53    25    52 1   
    54    26    30 ar  
    55    27    28 ar  
    56    27    53 1   
    57    28    29 ar  
    58    28    54 1   
    59    29    30 ar  
    60    29    55 1   
    61    30    56 1   
    62    32    33 1   
    63    32    57 1   
    64    32    58 1   
@<TRIPOS>SUBSTRUCTURE
     1 5ZF         1 TEMP              0 ****  ****    0 ROOT
