@<TRIPOS>MOLECULE
5ZF
   61    64     1     0     0
SMALL
No Charge or Current Charge


@<TRIPOS>ATOM
      1 C10         13.0990    -3.3750    25.4260 ca         1 5ZF      -0.113000
      2 C13         12.9140    -1.6790    23.1980 ca         1 5ZF      -0.097500
      3 C15          8.9010    -1.0290    21.4600 ca         1 5ZF      -0.098000
      4 C17          6.6890     0.7430    19.5970 ca         1 5ZF      -0.138300
      5 C20          7.2240     0.4180    16.9040 ca         1 5ZF       0.344900
      6 C21          5.9850    -0.0070    17.4090 ca         1 5ZF      -0.166000
      7 C22          5.7070     0.1570    18.7750 ca         1 5ZF      -0.055000
      8 C26          7.8720     4.0390    24.3220 c3         1 5ZF      -0.102100
      9 C28         11.0810     2.1960    23.6800 ca         1 5ZF      -0.092000
     10 C02          5.4010    -1.1550    22.0630 c          1 5ZF       0.598100
     11 C04          7.8590    -0.7400    22.3600 ca         1 5ZF      -0.075000
     12 C05          8.0440    -1.0430    23.7240 ca         1 5ZF      -0.098000
     13 C06          9.2900    -1.4860    24.1950 ca         1 5ZF      -0.092500
     14 C07         10.3780    -1.6880    23.3120 cp         1 5ZF      -0.017000
     15 C08         11.7180    -2.1250    23.8190 cp         1 5ZF      -0.038000
     16 C09         11.8390    -2.9810    24.9430 ca         1 5ZF      -0.097500
     17 C11         14.2670    -2.9200    24.7950 ca         1 5ZF      -0.105000
     18 C12         14.1740    -2.0710    23.6810 ca         1 5ZF      -0.113000
     19 C14         10.1480    -1.4720    21.9320 ca         1 5ZF      -0.092500
     20 C16          6.4220     0.9430    21.0970 c3         1 5ZF       0.099000
     21 C18          7.9040     1.1450    18.9960 ca         1 5ZF       0.380900
     22 N19          8.1750     0.9850    17.6790 nb         1 5ZF      -0.669000
     23 C23          7.1540     2.2060    21.6650 c          1 5ZF       0.597100
     24 N24          7.8490     2.0520    22.8440 ns         1 5ZF      -0.499900
     25 C25          8.7000     3.0540    23.4720 c3         1 5ZF       0.159000
     26 C27          9.7990     2.3340    24.2530 ca         1 5ZF      -0.107300
     27 C29         12.0950     1.5010    24.3610 ca         1 5ZF      -0.115000
     28 C30         11.8370     0.9300    25.6170 ca         1 5ZF      -0.098000
     29 C31         10.5630     1.0550    26.1930 ca         1 5ZF      -0.115000
     30 C32          9.5460     1.7500    25.5140 ca         1 5ZF      -0.092000
     31 O33          7.1210     3.2880    21.0920 o          1 5ZF      -0.578100
     32 C34          5.6030    -2.5880    22.6020 c3         1 5ZF       0.030600
     33 Cl35         4.2380    -3.7430    22.2150 cl         1 5ZF      -0.227000
     34 H1          13.1680    -4.0350    26.2880 ha         1 5ZF       0.114000
     35 H2          12.8650    -1.0070    22.3450 ha         1 5ZF       0.115000
     36 H3           8.7560    -0.9170    20.3910 ha         1 5ZF       0.124000
     37 H5           5.2520    -0.4560    16.7440 ha         1 5ZF       0.123000
     38 H6           4.7500    -0.1630    19.1810 ha         1 5ZF       0.113000
     39 H7           8.5320     4.7500    24.8330 hc         1 5ZF       0.044700
     40 H8           7.1850     4.6100    23.6870 hc         1 5ZF       0.044700
     41 H9           7.2760     3.5150    25.0770 hc         1 5ZF       0.044700
     42 H10         11.2910     2.6210    22.7020 ha         1 5ZF       0.112000
     43 H11          7.2370    -0.8830    24.4360 ha         1 5ZF       0.124000
     44 H12          9.4170    -1.6490    25.2620 ha         1 5ZF       0.122000
     45 H13         10.9470    -3.3550    25.4410 ha         1 5ZF       0.115000
     46 H14         15.2430    -3.2230    25.1700 ha         1 5ZF       0.115000
     47 H15         15.0780    -1.7130    23.1930 ha         1 5ZF       0.114000
     48 H16         10.9410    -1.6660    21.2140 ha         1 5ZF       0.122000
     49 H17          5.3740     1.2560    21.1720 h1         1 5ZF       0.060700
     50 H18          8.7020     1.5950    19.5870 h4         1 5ZF       0.025100
     51 H19          7.8600     1.1190    23.2370 hn         1 5ZF       0.313500
     52 H20          9.1810     3.6380    22.6740 h1         1 5ZF       0.081700
     53 H21         13.0800     1.3980    23.9100 ha         1 5ZF       0.112000
     54 H22         12.6210     0.3840    26.1380 ha         1 5ZF       0.115000
     55 H23         10.3590     0.6050    27.1620 ha         1 5ZF       0.112000
     56 H24          8.5610     1.8180    25.9670 ha         1 5ZF       0.112000
     57 H25          5.7100    -2.5450    23.6910 h1         1 5ZF       0.086700
     58 H26          6.5170    -3.0070    22.1660 h1         1 5ZF       0.086700
     59 N03          6.5570    -0.3400    21.8850 n          1 5ZF      -0.242400
     60 H4           7.4630     0.3010    15.8480 h4         1 5ZF       0.018100
     61 O01          4.2790    -0.7530    21.7690 o          1 5ZF      -0.549100
@<TRIPOS>BOND
     1     1    16 ar  
     2     1    17 ar  
     3     1    34 1   
     4     2    15 ar  
     5     2    18 ar  
     6     2    35 1   
     7     3    11 ar  
     8     3    19 ar  
     9     3    36 1   
    10     4     7 ar  
    11     4    20 1   
    12     4    21 ar  
    13     5     6 ar  
    14     5    22 ar  
    15     5    60 1   
    16     6     7 ar  
    17     6    37 1   
    18     7    38 1   
    19     8    25 1   
    20     8    39 1   
    21     8    40 1   
    22     8    41 1   
    23     9    26 ar  
    24     9    27 ar  
    25     9    42 1   
    26    10    32 1   
    27    10    59 1   
    28    10    61 2   
    29    11    12 ar  
    30    11    59 1   
    31    12    13 ar  
    32    12    43 1   
    33    13    14 ar  
    34    13    44 1   
    35    14    15 1   
    36    14    19 ar  
    37    15    16 ar  
    38    16    45 1   
    39    17    18 ar  
    40    17    46 1   
    41    18    47 1   
    42    19    48 1   
    43    20    23 1   
    44    20    49 1   
    45    20    59 1   
    46    21    22 ar  
    47    21    50 1   
    48    23    24 1   
    49    23    31 2   
    50    24    25 1   
    51    24    51 1   
    52    25    26 1   
    53    25    52 1   
    54    26    30 ar  
    55    27    28 ar  
    56    27    53 1   
    57    28    29 ar  
    58    28    54 1   
    59    29    30 ar  
    60    29    55 1   
    61    30    56 1   
    62    32    33 1   
    63    32    57 1   
    64    32    58 1   
@<TRIPOS>SUBSTRUCTURE
     1 5ZF         1 TEMP              0 ****  ****    0 ROOT
