@<TRIPOS>MOLECULE
5ZH
   60    65     1     0     0
SMALL
abcg2


@<TRIPOS>ATOM
      1 CAU         56.0570    15.4980     4.7450 c6         1 5ZH       0.191300
      2 CAV         57.2570    14.6750     5.1900 c6         1 5ZH       0.154300
      3 NAW         58.2080    15.5360     5.8920 n7         1 5ZH      -0.869400
      4 CAX         57.5900    16.1480     7.0690 c6         1 5ZH       0.154300
      5 CAY         56.3840    16.9650     6.6390 c6         1 5ZH       0.191300
      6 NAT         55.4290    16.1040     5.9220 nh         1 5ZH      -0.802400
      7 CAQ         54.1270    16.5990     5.7600 ca         1 5ZH       0.345000
      8 CAR         53.1910    16.5750     6.8210 ca         1 5ZH      -0.200300
      9 CAZ         53.5020    15.9460     8.1570 c3         1 5ZH       0.356300
     10 FBB         52.3850    15.7720     8.8990 f          1 5ZH      -0.109000
     11 FBC         54.0670    14.7270     8.0430 f          1 5ZH      -0.109000
     12 FBA         54.3360    16.6920     8.9250 f          1 5ZH      -0.109000
     13 CAS         51.8970    17.0450     6.6240 ca         1 5ZH      -0.026000
     14 CAP         53.6960    17.0890     4.5190 ca         1 5ZH      -0.171000
     15 CAO         52.4050    17.5470     4.3240 ca         1 5ZH      -0.048000
     16 CAN         51.5110    17.5200     5.3830 ca         1 5ZH      -0.035200
     17 NAK         50.1510    17.8950     5.1670 na         1 5ZH       0.195000
     18 CAG         49.1800    17.2000     4.5300 cc         1 5ZH      -0.044000
     19 CAF         49.1450    15.9040     3.9200 ca         1 5ZH      -0.090000
     20 CAE         50.1930    14.9780     3.8860 ca         1 5ZH      -0.046000
     21 NAL         49.6690    19.1050     5.5770 nc         1 5ZH      -0.167800
     22 NAM         48.4310    19.1920     5.2170 nd         1 5ZH      -0.280000
     23 CAH         48.0840    18.0480     4.5660 cd         1 5ZH       0.125500
     24 CAI         46.8100    17.7030     3.9650 c          1 5ZH       0.509500
     25 OBD         45.8000    18.4020     3.9570 o          1 5ZH      -0.508000
     26 NAJ         46.8410    16.4610     3.3650 ns         1 5ZH      -0.394100
     27 CAA         47.9090    15.5770     3.3190 ca         1 5ZH       0.117600
     28 CAB         47.7730    14.3460     2.6720 ca         1 5ZH      -0.163000
     29 CAC         48.8310    13.4620     2.6270 ca         1 5ZH      -0.046000
     30 CAD         50.0630    13.7560     3.2410 cp         1 5ZH      -0.051000
     31 CBE         51.1930    12.8070     3.2040 cp         1 5ZH      -0.124000
     32 CBF         50.9930    11.4320     3.1600 ca         1 5ZH       0.389900
     33 NBG         51.9800    10.5270     3.1200 nb         1 5ZH      -0.747000
     34 CBJ         52.5310    13.2430     3.2230 ca         1 5ZH      -0.039000
     35 CBI         53.5580    12.3290     3.1900 ca         1 5ZH      -0.181000
     36 CBH         53.2280    10.9670     3.1290 ca         1 5ZH       0.586300
     37 OBK         54.2520    10.0920     3.0780 os         1 5ZH      -0.467300
     38 CBL         53.9400     8.6940     2.9930 c3         1 5ZH       0.159900
     39 H1          55.3300    14.8560     4.2500 h1         1 5ZH       0.048950
     40 H2          56.3940    16.2600     4.0270 h1         1 5ZH       0.048950
     41 H3          56.8980    13.8480     5.8220 h1         1 5ZH       0.046450
     42 H4          57.7430    14.2460     4.3130 h1         1 5ZH       0.046450
     43 H5          59.0190    14.9950     6.1720 hn         1 5ZH       0.418000
     44 H7          58.3170    16.8030     7.5530 h1         1 5ZH       0.046450
     45 H8          57.2620    15.3980     7.8040 h1         1 5ZH       0.046450
     46 H9          56.7120    17.7810     5.9770 h1         1 5ZH       0.048950
     47 H10         55.9030    17.4090     7.5040 h1         1 5ZH       0.048950
     48 H11         51.1680    16.9970     7.4190 ha         1 5ZH       0.155000
     49 H12         54.3910    17.1160     3.6930 ha         1 5ZH       0.132000
     50 H13         52.0880    17.9100     3.3550 ha         1 5ZH       0.139000
     51 H14         51.1180    15.2150     4.3870 ha         1 5ZH       0.122000
     52 H15         45.9770    16.1740     2.9220 hn         1 5ZH       0.332500
     53 H16         46.8320    14.0970     2.1960 ha         1 5ZH       0.126000
     54 H17         48.7060    12.5300     2.0910 ha         1 5ZH       0.122000
     55 H18         49.9880    11.0260     3.1740 h4         1 5ZH       0.021100
     56 H19         52.7640    14.3000     3.2480 ha         1 5ZH       0.118000
     57 H20         54.5950    12.6350     3.1960 ha         1 5ZH       0.136000
     58 H21         54.9010     8.1890     2.9500 h1         1 5ZH       0.050033
     59 H22         53.3800     8.3680     3.8690 h1         1 5ZH       0.050033
     60 H23         53.3610     8.4820     2.0940 h1         1 5ZH       0.050033
@<TRIPOS>BOND
     1     1     2 1   
     2     1     6 1   
     3     1    39 1   
     4     1    40 1   
     5     2     3 1   
     6     2    41 1   
     7     2    42 1   
     8     3     4 1   
     9     3    43 1   
    10     4     5 1   
    11     4    44 1   
    12     4    45 1   
    13     5     6 1   
    14     5    46 1   
    15     5    47 1   
    16     6     7 1   
    17     7     8 ar  
    18     7    14 ar  
    19     8     9 1   
    20     8    13 ar  
    21     9    10 1   
    22     9    11 1   
    23     9    12 1   
    24    13    16 ar  
    25    13    48 1   
    26    14    15 ar  
    27    14    49 1   
    28    15    16 ar  
    29    15    50 1   
    30    16    17 1   
    31    17    18 1   
    32    17    21 1   
    33    18    19 1   
    34    18    23 2   
    35    19    20 ar  
    36    19    27 ar  
    37    20    30 ar  
    38    20    51 1   
    39    21    22 2   
    40    22    23 1   
    41    23    24 1   
    42    24    25 2   
    43    24    26 1   
    44    26    27 1   
    45    26    52 1   
    46    27    28 ar  
    47    28    29 ar  
    48    28    53 1   
    49    29    30 ar  
    50    29    54 1   
    51    30    31 1   
    52    31    32 ar  
    53    31    34 ar  
    54    32    33 ar  
    55    32    55 1   
    56    33    36 ar  
    57    34    35 ar  
    58    34    56 1   
    59    35    36 ar  
    60    35    57 1   
    61    36    37 1   
    62    37    38 1   
    63    38    58 1   
    64    38    59 1   
    65    38    60 1   
@<TRIPOS>SUBSTRUCTURE
     1 5ZH         1 TEMP              0 ****  ****    0 ROOT
