@<TRIPOS>MOLECULE
5ZH
   60    65     1     0     0
SMALL
No Charge or Current Charge


@<TRIPOS>ATOM
      1 CAU         55.7020    14.9040     5.1760 c6         1 5ZH       0.191300
      2 CAV         56.9930    14.2230     5.7420 c6         1 5ZH       0.154300
      3 NAW         58.1410    15.1690     5.8720 n7         1 5ZH      -0.869400
      4 CAX         57.7500    16.3740     6.6650 c6         1 5ZH       0.154300
      5 CAY         56.4680    17.0810     6.1100 c6         1 5ZH       0.191300
      6 NAT         55.3250    16.1310     5.9430 nh         1 5ZH      -0.802400
      7 CAQ         54.0210    16.6400     5.8140 ca         1 5ZH       0.345000
      8 CAR         53.0260    16.3730     6.7830 ca         1 5ZH      -0.200300
      9 CAZ         53.3460    15.5400     8.0330 c3         1 5ZH       0.356300
     10 FBB         52.2960    15.4410     8.8800 f          1 5ZH      -0.109000
     11 FBC         53.6980    14.2720     7.7180 f          1 5ZH      -0.109000
     12 FBA         54.3610    16.0720     8.7540 f          1 5ZH      -0.109000
     13 CAS         51.7180    16.8760     6.5750 ca         1 5ZH      -0.026000
     14 CAP         53.7080    17.4050     4.6770 ca         1 5ZH      -0.171000
     15 CAO         52.4110    17.9000     4.4790 ca         1 5ZH      -0.048000
     16 CAN         51.4100    17.6270     5.4260 ca         1 5ZH      -0.035200
     17 NAK         50.1030    18.0390     5.1940 na         1 5ZH       0.195000
     18 CAG         49.1400    17.3110     4.5540 cc         1 5ZH      -0.044000
     19 CAF         49.0940    15.9910     3.9110 ca         1 5ZH      -0.090000
     20 CAE         50.1990    15.1180     3.8390 ca         1 5ZH      -0.046000
     21 NAL         49.6600    19.2440     5.6330 nc         1 5ZH      -0.167800
     22 NAM         48.3970    19.3040     5.2660 nd         1 5ZH      -0.280000
     23 CAH         48.0450    18.1310     4.6000 cd         1 5ZH       0.125500
     24 CAI         46.7360    17.7240     3.9990 c          1 5ZH       0.509500
     25 OBD         45.7190    18.4040     4.0050 o          1 5ZH      -0.508000
     26 NAJ         46.7670    16.4730     3.4160 ns         1 5ZH      -0.394100
     27 CAA         47.8690    15.5950     3.3430 ca         1 5ZH       0.117600
     28 CAB         47.7480    14.3480     2.7140 ca         1 5ZH      -0.163000
     29 CAC         48.8540    13.4840     2.6460 ca         1 5ZH      -0.046000
     30 CAD         50.1030    13.8540     3.2060 cp         1 5ZH      -0.051000
     31 CBE         51.2900    12.9410     3.1370 cp         1 5ZH      -0.124000
     32 CBF         51.1470    11.5300     3.1840 ca         1 5ZH       0.389900
     33 NBG         52.1800    10.6580     3.1340 nb         1 5ZH      -0.747000
     34 CBJ         52.6080    13.4450     3.0270 ca         1 5ZH      -0.039000
     35 CBI         53.6780    12.5400     2.9700 ca         1 5ZH      -0.181000
     36 CBH         53.4260    11.1630     3.0280 ca         1 5ZH       0.586300
     37 OBK         54.5070    10.3140     2.9710 os         1 5ZH      -0.467300
     38 CBL         54.3370     8.8830     3.0280 c3         1 5ZH       0.159900
     39 H1          54.8810    14.1730     5.2040 h1         1 5ZH       0.048950
     40 H2          55.8720    15.1640     4.1210 h1         1 5ZH       0.048950
     41 H3          56.7590    13.8030     6.7320 h1         1 5ZH       0.046450
     42 H4          57.2770    13.3830     5.0910 h1         1 5ZH       0.046450
     43 H5          58.9190    14.6920     6.3460 hn         1 5ZH       0.418000
     44 H7          58.5840    17.0920     6.6830 h1         1 5ZH       0.046450
     45 H8          57.5570    16.0720     7.7050 h1         1 5ZH       0.046450
     46 H9          56.7120    17.5450     5.1420 h1         1 5ZH       0.048950
     47 H10         56.1890    17.8910     6.8000 h1         1 5ZH       0.048950
     48 H11         50.9240    16.6720     7.2900 ha         1 5ZH       0.155000
     49 H12         54.4750    17.6010     3.9340 ha         1 5ZH       0.132000
     50 H13         52.1780    18.4730     3.5830 ha         1 5ZH       0.139000
     51 H14         51.1450    15.3960     4.2850 ha         1 5ZH       0.122000
     52 H15         45.9010    16.1580     2.9970 hn         1 5ZH       0.332500
     53 H16         46.8000    14.0470     2.2740 ha         1 5ZH       0.126000
     54 H17         48.7430    12.5270     2.1420 ha         1 5ZH       0.122000
     55 H18         50.1590    11.0800     3.2810 h4         1 5ZH       0.021100
     56 H19         52.8000    14.5140     2.9690 ha         1 5ZH       0.118000
     57 H20         54.6990    12.8950     2.8770 ha         1 5ZH       0.136000
     58 H21         55.3110     8.3800     2.9690 h1         1 5ZH       0.050033
     59 H22         53.8560     8.5820     3.9670 h1         1 5ZH       0.050033
     60 H23         53.7210     8.5280     2.1910 h1         1 5ZH       0.050033
@<TRIPOS>BOND
     1     1     2 1   
     2     1     6 1   
     3     1    39 1   
     4     1    40 1   
     5     2     3 1   
     6     2    41 1   
     7     2    42 1   
     8     3     4 1   
     9     3    43 1   
    10     4     5 1   
    11     4    44 1   
    12     4    45 1   
    13     5     6 1   
    14     5    46 1   
    15     5    47 1   
    16     6     7 1   
    17     7     8 ar  
    18     7    14 ar  
    19     8     9 1   
    20     8    13 ar  
    21     9    10 1   
    22     9    11 1   
    23     9    12 1   
    24    13    16 ar  
    25    13    48 1   
    26    14    15 ar  
    27    14    49 1   
    28    15    16 ar  
    29    15    50 1   
    30    16    17 1   
    31    17    18 1   
    32    17    21 1   
    33    18    19 1   
    34    18    23 2   
    35    19    20 ar  
    36    19    27 ar  
    37    20    30 ar  
    38    20    51 1   
    39    21    22 2   
    40    22    23 1   
    41    23    24 1   
    42    24    25 2   
    43    24    26 1   
    44    26    27 1   
    45    26    52 1   
    46    27    28 ar  
    47    28    29 ar  
    48    28    53 1   
    49    29    30 ar  
    50    29    54 1   
    51    30    31 1   
    52    31    32 ar  
    53    31    34 ar  
    54    32    33 ar  
    55    32    55 1   
    56    33    36 ar  
    57    34    35 ar  
    58    34    56 1   
    59    35    36 ar  
    60    35    57 1   
    61    36    37 1   
    62    37    38 1   
    63    38    58 1   
    64    38    59 1   
    65    38    60 1   
@<TRIPOS>SUBSTRUCTURE
     1 5ZH         1 TEMP              0 ****  ****    0 ROOT
