@<TRIPOS>MOLECULE
5ZI
   56    60     1     0     0
SMALL
No Charge or Current Charge


@<TRIPOS>ATOM
      1 OAA          1.5080    -1.6860    -0.9730 o          1 5ZI      -0.578100
      2 CAB          1.9850    -0.5610    -0.8850 c          1 5ZI       0.606100
      3 CAC          3.4990    -0.3320    -0.9900 c3         1 5ZI      -0.149400
      4 CAD          4.2480    -0.8060     0.2880 c3         1 5ZI      -0.110700
      5 CAE          5.7350    -0.5800     0.2320 cc         1 5ZI       0.503900
      6 NAF          6.2820     0.5150     0.7570 nd         1 5ZI      -0.639100
      7 CAG          7.6790     0.5920     0.6150 ca         1 5ZI       0.187400
      8 CAH          8.4560    -0.3920    -0.0300 ca         1 5ZI      -0.202600
      9 CAI          9.8560    -0.2430    -0.1340 ca         1 5ZI      -0.039000
     10 CAJ         10.4840     0.8900     0.4050 ca         1 5ZI      -0.132000
     11 CAK          9.7190     1.8740     1.0480 ca         1 5ZI      -0.074000
     12 CAL          8.3250     1.7220     1.1490 ca         1 5ZI      -0.106000
     13 CAM          7.7680    -1.5790    -0.5930 c          1 5ZI       0.579600
     14 OAN          8.3360    -2.4910    -1.1720 o          1 5ZI      -0.532000
     15 NAO          6.4290    -1.5710    -0.4100 ns         1 5ZI      -0.432400
     16 NAP          1.2400     0.6000    -0.7210 ns         1 5ZI      -0.146000
     17 CAQ         -0.1560     0.8310    -0.5790 ca         1 5ZI       0.005000
     18 CAR         -0.5920     2.1650    -0.5200 ca         1 5ZI      -0.164500
     19 CAS         -1.9550     2.4740    -0.3780 ca         1 5ZI      -0.039000
     20 CAT         -2.9220     1.4490    -0.2880 ca         1 5ZI      -0.183600
     21 CAU         -2.4810     0.1040    -0.3430 ca         1 5ZI      -0.039000
     22 CAV         -1.1150    -0.1980    -0.4860 ca         1 5ZI      -0.164500
     23 CAW         -4.3880     1.8170    -0.1340 c          1 5ZI       0.627700
     24 OAX         -4.7410     2.9910    -0.0870 o          1 5ZI      -0.590100
     25 NAY         -5.2720     0.7510    -0.0540 ns         1 5ZI      -0.134000
     26 CAZ         -6.6880     0.6630     0.0900 ca         1 5ZI       0.007000
     27 CBA         -7.2600    -0.6360     0.1350 ca         1 5ZI       0.229000
     28 NBB         -6.4620    -1.7360     0.0410 nb         1 5ZI      -0.692000
     29 CBC         -7.0290    -2.9640     0.0870 ca         1 5ZI       0.353900
     30 CBD         -8.4100    -3.1600     0.2260 ca         1 5ZI      -0.163000
     31 CBE         -9.2500    -2.0410     0.3240 ca         1 5ZI      -0.061000
     32 CBF         -8.6680    -0.7610     0.2780 ca         1 5ZI      -0.052000
     33 CBG         -9.4850     0.3790     0.3740 ca         1 5ZI      -0.130000
     34 CBH         -8.9130     1.6560     0.3280 ca         1 5ZI      -0.070000
     35 CBI         -7.5240     1.8010     0.1880 ca         1 5ZI      -0.145000
     36 HAC          3.8750    -0.9020    -1.8490 hc         1 5ZI       0.080700
     37 HACA         3.7070     0.7350    -1.1390 hc         1 5ZI       0.080700
     38 HAD          3.8390    -0.2760     1.1580 hc         1 5ZI       0.077700
     39 HADA         4.0400    -1.8690     0.4620 hc         1 5ZI       0.077700
     40 HAI         10.4560    -1.0030    -0.6320 ha         1 5ZI       0.136000
     41 HAJ         11.5630     1.0040     0.3250 ha         1 5ZI       0.121000
     42 HAK         10.2030     2.7540     1.4670 ha         1 5ZI       0.118000
     43 HAL          7.7390     2.4890     1.6490 ha         1 5ZI       0.130000
     44 HNAO         5.9260    -2.3630    -0.7820 hn         1 5ZI       0.331500
     45 HNAP         1.7960     1.4450    -0.6900 hn         1 5ZI       0.155000
     46 HAR          0.1300     2.9770    -0.5860 ha         1 5ZI       0.132500
     47 HAS         -2.2550     3.5200    -0.3380 ha         1 5ZI       0.129000
     48 HAU         -3.1800    -0.7270    -0.2760 ha         1 5ZI       0.129000
     49 HAV         -0.8250    -1.2430    -0.5170 ha         1 5ZI       0.132500
     50 HNAY        -4.8320    -0.1570    -0.1080 hn         1 5ZI       0.186000
     51 HBC         -6.3530    -3.8150     0.0080 h4         1 5ZI       0.019100
     52 HBD         -8.8170    -4.1660     0.2570 ha         1 5ZI       0.125000
     53 HBE        -10.3250    -2.1660     0.4330 ha         1 5ZI       0.121000
     54 HBG        -10.5630     0.2770     0.4830 ha         1 5ZI       0.118000
     55 HBH         -9.5460     2.5380     0.4030 ha         1 5ZI       0.117000
     56 HBI         -7.1190     2.8070     0.1570 ha         1 5ZI       0.151000
@<TRIPOS>BOND
     1     1     2 2   
     2     2     3 1   
     3     2    16 1   
     4     3     4 1   
     5     3    36 1   
     6     3    37 1   
     7     4     5 1   
     8     4    38 1   
     9     4    39 1   
    10     5     6 2   
    11     5    15 1   
    12     6     7 1   
    13     7     8 ar  
    14     7    12 ar  
    15     8     9 ar  
    16     8    13 1   
    17     9    10 ar  
    18     9    40 1   
    19    10    11 ar  
    20    10    41 1   
    21    11    12 ar  
    22    11    42 1   
    23    12    43 1   
    24    13    14 2   
    25    13    15 1   
    26    15    44 1   
    27    16    17 1   
    28    16    45 1   
    29    17    18 ar  
    30    17    22 ar  
    31    18    19 ar  
    32    18    46 1   
    33    19    20 ar  
    34    19    47 1   
    35    20    21 ar  
    36    20    23 1   
    37    21    22 ar  
    38    21    48 1   
    39    22    49 1   
    40    23    24 2   
    41    23    25 1   
    42    25    26 1   
    43    25    50 1   
    44    26    27 ar  
    45    26    35 ar  
    46    27    28 ar  
    47    27    32 ar  
    48    28    29 ar  
    49    29    30 ar  
    50    29    51 1   
    51    30    31 ar  
    52    30    52 1   
    53    31    32 ar  
    54    31    53 1   
    55    32    33 ar  
    56    33    34 ar  
    57    33    54 1   
    58    34    35 ar  
    59    34    55 1   
    60    35    56 1   
@<TRIPOS>SUBSTRUCTURE
     1 5ZI         1 TEMP              0 ****  ****    0 ROOT
