@<TRIPOS>MOLECULE
5ZI
   56    60     1     0     0
SMALL
abcg2


@<TRIPOS>ATOM
      1 OAA          1.5100    -1.1480    -0.6590 o          1 5ZI      -0.578100
      2 CAB          1.9480    -0.0750    -0.2910 c          1 5ZI       0.606100
      3 CAC          3.4310     0.2070    -0.1800 c3         1 5ZI      -0.149400
      4 CAD          4.2250    -1.0570     0.0850 c3         1 5ZI      -0.110700
      5 CAE          5.7050    -0.8360     0.0790 cc         1 5ZI       0.503900
      6 NAF          6.2160     0.3070    -0.2030 nd         1 5ZI      -0.639100
      7 CAG          7.5880     0.4170    -0.2020 ca         1 5ZI       0.187400
      8 CAH          8.4330    -0.6640     0.0920 ca         1 5ZI      -0.202600
      9 CAI          9.8210    -0.5050     0.0800 ca         1 5ZI      -0.039000
     10 CAJ         10.3700     0.7220    -0.2240 ca         1 5ZI      -0.132000
     11 CAK          9.5330     1.8040    -0.5200 ca         1 5ZI      -0.074000
     12 CAL          8.1630     1.6580    -0.5100 ca         1 5ZI      -0.106000
     13 CAM          7.8350    -1.9560     0.4100 c          1 5ZI       0.579600
     14 OAN          8.4470    -2.9730     0.6790 o          1 5ZI      -0.532000
     15 NAO          6.4590    -1.9340     0.3800 ns         1 5ZI      -0.432400
     16 NAP          1.1670     0.9930     0.0290 ns         1 5ZI      -0.146000
     17 CAQ         -0.2180     1.1180    -0.0120 ca         1 5ZI       0.005000
     18 CAR         -0.7550     2.3320     0.4310 ca         1 5ZI      -0.164500
     19 CAS         -2.1170     2.5480     0.4270 ca         1 5ZI      -0.039000
     20 CAT         -2.9970     1.5560    -0.0040 ca         1 5ZI      -0.183600
     21 CAU         -2.4570     0.3540    -0.4560 ca         1 5ZI      -0.039000
     22 CAV         -1.0910     0.1270    -0.4680 ca         1 5ZI      -0.164500
     23 CAW         -4.4560     1.8490     0.0100 c          1 5ZI       0.627700
     24 OAX         -4.8750     2.9950     0.0140 o          1 5ZI      -0.590100
     25 NAY         -5.2600     0.7570     0.0310 ns         1 5ZI      -0.134000
     26 CAZ         -6.6440     0.6820    -0.0260 ca         1 5ZI       0.007000
     27 CBA         -7.1640    -0.6510    -0.0030 ca         1 5ZI       0.229000
     28 NBB         -6.2770    -1.6660     0.0770 nb         1 5ZI      -0.692000
     29 CBC         -6.7250    -2.8930     0.1010 ca         1 5ZI       0.353900
     30 CBD         -8.0940    -3.2180     0.0450 ca         1 5ZI      -0.163000
     31 CBE         -9.0050    -2.2030    -0.0360 ca         1 5ZI      -0.061000
     32 CBF         -8.5580    -0.8640    -0.0630 ca         1 5ZI      -0.052000
     33 CBG         -9.4310     0.2430    -0.1460 ca         1 5ZI      -0.130000
     34 CBH         -8.9100     1.5050    -0.1670 ca         1 5ZI      -0.070000
     35 CBI         -7.5200     1.7400    -0.1070 ca         1 5ZI      -0.145000
     36 HAC          3.7490     0.6620    -1.1230 hc         1 5ZI       0.080700
     37 HACA         3.6250     0.9500     0.5950 hc         1 5ZI       0.080700
     38 HAD          3.9420    -1.4890     1.0490 hc         1 5ZI       0.077700
     39 HADA         3.9950    -1.8190    -0.6650 hc         1 5ZI       0.077700
     40 HAI         10.4580    -1.3490     0.3090 ha         1 5ZI       0.136000
     41 HAJ         11.4440     0.8500    -0.2360 ha         1 5ZI       0.121000
     42 HAK          9.9660     2.7650    -0.7610 ha         1 5ZI       0.118000
     43 HAL          7.5120     2.4910    -0.7400 ha         1 5ZI       0.130000
     44 HNAO         5.9850    -2.8010     0.5970 hn         1 5ZI       0.331500
     45 HNAP         1.6550     1.8170     0.3480 hn         1 5ZI       0.155000
     46 HAR         -0.0940     3.1150     0.7830 ha         1 5ZI       0.132500
     47 HAS         -2.4990     3.4980     0.7740 ha         1 5ZI       0.129000
     48 HAU         -3.0900    -0.4350    -0.8440 ha         1 5ZI       0.129000
     49 HAV         -0.7220    -0.8150    -0.8360 ha         1 5ZI       0.132500
     50 HNAY        -4.8360    -0.1590     0.1200 hn         1 5ZI       0.186000
     51 HBC         -5.9850    -3.6830     0.1670 h4         1 5ZI       0.019100
     52 HBD         -8.4020    -4.2550     0.0680 ha         1 5ZI       0.125000
     53 HBE        -10.0680    -2.4090    -0.0800 ha         1 5ZI       0.121000
     54 HBG        -10.5010     0.0790    -0.1920 ha         1 5ZI       0.118000
     55 HBH         -9.5710     2.3600    -0.2310 ha         1 5ZI       0.117000
     56 HBI         -7.1620     2.7550    -0.1220 ha         1 5ZI       0.151000
@<TRIPOS>BOND
     1     1     2 2   
     2     2     3 1   
     3     2    16 1   
     4     3     4 1   
     5     3    36 1   
     6     3    37 1   
     7     4     5 1   
     8     4    38 1   
     9     4    39 1   
    10     5     6 2   
    11     5    15 1   
    12     6     7 1   
    13     7     8 ar  
    14     7    12 ar  
    15     8     9 ar  
    16     8    13 1   
    17     9    10 ar  
    18     9    40 1   
    19    10    11 ar  
    20    10    41 1   
    21    11    12 ar  
    22    11    42 1   
    23    12    43 1   
    24    13    14 2   
    25    13    15 1   
    26    15    44 1   
    27    16    17 1   
    28    16    45 1   
    29    17    18 ar  
    30    17    22 ar  
    31    18    19 ar  
    32    18    46 1   
    33    19    20 ar  
    34    19    47 1   
    35    20    21 ar  
    36    20    23 1   
    37    21    22 ar  
    38    21    48 1   
    39    22    49 1   
    40    23    24 2   
    41    23    25 1   
    42    25    26 1   
    43    25    50 1   
    44    26    27 ar  
    45    26    35 ar  
    46    27    28 ar  
    47    27    32 ar  
    48    28    29 ar  
    49    29    30 ar  
    50    29    51 1   
    51    30    31 ar  
    52    30    52 1   
    53    31    32 ar  
    54    31    53 1   
    55    32    33 ar  
    56    33    34 ar  
    57    33    54 1   
    58    34    35 ar  
    59    34    55 1   
    60    35    56 1   
@<TRIPOS>SUBSTRUCTURE
     1 5ZI         1 TEMP              0 ****  ****    0 ROOT
