@<TRIPOS>MOLECULE
5ZJ
   41    43     1     0     0
SMALL
No Charge or Current Charge


@<TRIPOS>ATOM
      1 C20        110.7750    -7.2690   106.4760 c          1 5ZJ       0.586200
      2 C22        110.1830    -6.2880   107.3860 cc         1 5ZJ      -0.357200
      3 C24        100.4430    -3.0400   110.8860 c3         1 5ZJ       0.357300
      4 C13        101.9290    -3.3090   110.6070 ca         1 5ZJ      -0.233300
      5 C12        102.9270    -2.7740   111.4530 ca         1 5ZJ      -0.016000
      6 C14        102.3350    -4.0950   109.5030 ca         1 5ZJ       0.212000
      7 C15        103.6950    -4.3350   109.2580 ca         1 5ZJ      -0.191000
      8 C17        112.8130    -7.1390   107.8090 c          1 5ZJ       0.618000
      9 C1         110.8770    -5.7810   108.4710 cd         1 5ZJ       0.055400
     10 C10        104.6800    -3.8000   110.1010 ca         1 5ZJ       0.353000
     11 C11        104.2840    -3.0200   111.1960 ca         1 5ZJ      -0.177000
     12 C2         110.3420    -4.7380   109.4330 c          1 5ZJ       0.602300
     13 C5         107.9840    -5.6210   109.5770 c6         1 5ZJ       0.090000
     14 C6         106.5270    -5.2650   109.1750 c6         1 5ZJ       0.189300
     15 C8         106.9780    -2.8780   109.6750 c6         1 5ZJ       0.189300
     16 C9         108.4410    -3.2330   110.0600 c6         1 5ZJ       0.090000
     17 F25         99.8480    -2.3960   109.8570 f          1 5ZJ      -0.110000
     18 F26         99.7560    -4.1860   111.0940 f          1 5ZJ      -0.110000
     19 F27        100.2420    -2.2730   111.9820 f          1 5ZJ      -0.110000
     20 N16        112.1860    -6.2250   108.6020 ns         1 5ZJ      -0.505600
     21 N19        112.0520    -7.6110   106.7910 ns         1 5ZJ      -0.469500
     22 N4         108.9510    -4.4840   109.4230 n          1 5ZJ      -0.402800
     23 N7         106.0550    -4.0330   109.8670 nh         1 5ZJ      -0.805400
     24 O18        113.9590    -7.4960   108.0000 o          1 5ZJ      -0.541000
     25 O21        110.1970    -7.7430   105.5140 o          1 5ZJ      -0.518000
     26 O3         111.0870    -4.1170   110.1840 o          1 5ZJ      -0.576100
     27 H1         109.1850    -5.9660   107.1150 ha         1 5ZJ       0.224000
     28 H2         102.6630    -2.1650   112.3170 ha         1 5ZJ       0.136000
     29 H3         103.9760    -4.9320   108.3980 ha         1 5ZJ       0.134000
     30 H4         105.0360    -2.6100   111.8640 ha         1 5ZJ       0.124000
     31 H5         107.9750    -5.9120   110.6370 h1         1 5ZJ       0.072450
     32 H6         108.3010    -6.5130   109.0260 h1         1 5ZJ       0.072450
     33 H7         106.4820    -5.1260   108.0840 h1         1 5ZJ       0.058200
     34 H8         105.8810    -6.1190   109.4270 h1         1 5ZJ       0.058200
     35 H9         106.9590    -2.5630   108.6210 h1         1 5ZJ       0.058200
     36 H10        106.6600    -2.0130   110.2740 h1         1 5ZJ       0.058200
     37 H11        108.4990    -3.3450   111.1520 h1         1 5ZJ       0.072450
     38 H12        109.0900    -2.3890   109.7860 h1         1 5ZJ       0.072450
     39 H13        112.7690    -5.8650   109.3530 hn         1 5ZJ       0.474000
     40 H14        112.4930    -8.2860   106.1870 hn         1 5ZJ       0.348500
     41 Cl23       101.1690    -4.8060   108.3850 cl         1 5ZJ      -0.179000
@<TRIPOS>BOND
     1     1     2 1   
     2     1    21 1   
     3     1    25 2   
     4     2     9 2   
     5     2    27 1   
     6     3     4 1   
     7     3    17 1   
     8     3    18 1   
     9     3    19 1   
    10     4     5 ar  
    11     4     6 ar  
    12     5    11 ar  
    13     5    28 1   
    14     6     7 ar  
    15     6    41 1   
    16     7    10 ar  
    17     7    29 1   
    18     8    20 1   
    19     8    21 1   
    20     8    24 2   
    21     9    12 1   
    22     9    20 1   
    23    10    11 ar  
    24    10    23 1   
    25    11    30 1   
    26    12    22 1   
    27    12    26 2   
    28    13    14 1   
    29    13    22 1   
    30    13    31 1   
    31    13    32 1   
    32    14    23 1   
    33    14    33 1   
    34    14    34 1   
    35    15    16 1   
    36    15    23 1   
    37    15    35 1   
    38    15    36 1   
    39    16    22 1   
    40    16    37 1   
    41    16    38 1   
    42    20    39 1   
    43    21    40 1   
@<TRIPOS>SUBSTRUCTURE
     1 5ZJ         1 TEMP              0 ****  ****    0 ROOT
