@<TRIPOS>MOLECULE
5ZJ
   41    43     1     0     0
SMALL
abcg2


@<TRIPOS>ATOM
      1 C20        110.4220    -6.8750   106.2260 c          1 5ZJ       0.586200
      2 C22        109.9080    -5.8960   107.1590 cc         1 5ZJ      -0.357200
      3 C24        100.6110    -3.1100   110.4540 c3         1 5ZJ       0.357300
      4 C13        102.0780    -3.3800   110.3330 ca         1 5ZJ      -0.233300
      5 C12        102.9980    -2.5750   111.0080 ca         1 5ZJ      -0.016000
      6 C14        102.5920    -4.4260   109.5660 ca         1 5ZJ       0.212000
      7 C15        103.9510    -4.6670   109.4740 ca         1 5ZJ      -0.191000
      8 C17        112.3470    -7.2020   107.7580 c          1 5ZJ       0.618000
      9 C1         110.5940    -5.6230   108.2880 cd         1 5ZJ       0.055400
     10 C10        104.8750    -3.8650   110.1700 ca         1 5ZJ       0.353000
     11 C11        104.3560    -2.8000   110.9330 ca         1 5ZJ      -0.177000
     12 C2         110.2210    -4.5150   109.2430 c          1 5ZJ       0.602300
     13 C5         108.0990    -5.6970   109.8580 c6         1 5ZJ       0.090000
     14 C6         106.7200    -5.2750   109.3720 c6         1 5ZJ       0.189300
     15 C8         107.1780    -3.0100   110.1560 c6         1 5ZJ       0.189300
     16 C9         108.5480    -3.4480   110.6500 c6         1 5ZJ       0.090000
     17 F25        100.0190    -2.8430   109.2630 f          1 5ZJ      -0.110000
     18 F26         99.9280    -4.1560   110.9870 f          1 5ZJ      -0.110000
     19 F27        100.3530    -2.0490   111.2470 f          1 5ZJ      -0.110000
     20 N16        111.7740    -6.2530   108.5740 ns         1 5ZJ      -0.505600
     21 N19        111.6250    -7.4640   106.6160 ns         1 5ZJ      -0.469500
     22 N4         109.0220    -4.5670   109.8430 n          1 5ZJ      -0.402800
     23 N7         106.2330    -4.1300   110.1350 nh         1 5ZJ      -0.805400
     24 O18        113.3990    -7.7570   108.0270 o          1 5ZJ      -0.541000
     25 O21        109.8920    -7.1980   105.1700 o          1 5ZJ      -0.518000
     26 O3         111.0390    -3.6080   109.3950 o          1 5ZJ      -0.576100
     27 H1         108.9820    -5.3970   106.9240 ha         1 5ZJ       0.224000
     28 H2         102.6370    -1.7580   111.6160 ha         1 5ZJ       0.136000
     29 H3         104.2780    -5.4730   108.8390 ha         1 5ZJ       0.134000
     30 H4         105.0120    -2.1570   111.4990 ha         1 5ZJ       0.124000
     31 H5         108.0270    -6.0540   110.8890 h1         1 5ZJ       0.072450
     32 H6         108.4760    -6.5060   109.2420 h1         1 5ZJ       0.072450
     33 H7         106.7560    -5.0480   108.2980 h1         1 5ZJ       0.058200
     34 H8         106.0530    -6.1210   109.5210 h1         1 5ZJ       0.058200
     35 H9         107.2750    -2.5920   109.1460 h1         1 5ZJ       0.058200
     36 H10        106.8180    -2.2250   110.8110 h1         1 5ZJ       0.058200
     37 H11        108.4900    -3.7670   111.6940 h1         1 5ZJ       0.072450
     38 H12        109.2540    -2.6280   110.5680 h1         1 5ZJ       0.072450
     39 H13        112.2900    -6.0050   109.4070 hn         1 5ZJ       0.474000
     40 H14        112.0190    -8.1570   105.9920 hn         1 5ZJ       0.348500
     41 CL23       101.5370    -5.4850   108.6550 cl         1 5ZJ      -0.179000
@<TRIPOS>BOND
     1     1     2 1   
     2     1    21 1   
     3     1    25 2   
     4     2     9 2   
     5     2    27 1   
     6     3     4 1   
     7     3    17 1   
     8     3    18 1   
     9     3    19 1   
    10     4     5 ar  
    11     4     6 ar  
    12     5    11 ar  
    13     5    28 1   
    14     6     7 ar  
    15     6    41 1   
    16     7    10 ar  
    17     7    29 1   
    18     8    20 1   
    19     8    21 1   
    20     8    24 2   
    21     9    12 1   
    22     9    20 1   
    23    10    11 ar  
    24    10    23 1   
    25    11    30 1   
    26    12    22 1   
    27    12    26 2   
    28    13    14 1   
    29    13    22 1   
    30    13    31 1   
    31    13    32 1   
    32    14    23 1   
    33    14    33 1   
    34    14    34 1   
    35    15    16 1   
    36    15    23 1   
    37    15    35 1   
    38    15    36 1   
    39    16    22 1   
    40    16    37 1   
    41    16    38 1   
    42    20    39 1   
    43    21    40 1   
@<TRIPOS>SUBSTRUCTURE
     1 5ZJ         1 TEMP              0 ****  ****    0 ROOT
