@<TRIPOS>MOLECULE
5ZK
   21    22     1     0     0
SMALL
No Charge or Current Charge


@<TRIPOS>ATOM
      1 N12          9.9860   -28.3040     3.9830 nb         1 5ZK      -0.269000
      2 C01          8.3520   -30.0250     5.6800 c3         1 5ZK       0.228100
      3 C03          8.8480   -27.7960     4.5100 ca         1 5ZK       0.404900
      4 C04          8.4980   -26.4680     4.2230 ca         1 5ZK      -0.203200
      5 C07          8.6770   -24.4280     3.3270 cc         1 5ZK       0.247300
      6 C08          9.2050   -23.2600     2.5440 c3         1 5ZK      -0.096400
      7 C09          9.3060   -25.7230     3.4250 ca         1 5ZK      -0.014300
      8 C11         10.7260   -27.4750     3.1950 ca         1 5ZK       0.136900
      9 N02          8.0710   -28.6210     5.3190 nu         1 5ZK      -0.938100
     10 N05          7.4330   -25.6650     4.5900 na         1 5ZK      -0.042400
     11 N06          7.5340   -24.3800     4.0330 nd         1 5ZK      -0.510100
     12 N10         10.4450   -26.1840     2.8790 nb         1 5ZK      -0.152000
     13 H1           7.5620   -30.4210     6.3320 h1         1 5ZK       0.044033
     14 H2           8.4010   -30.6530     4.7790 h1         1 5ZK       0.044033
     15 H3           9.3100   -30.1040     6.2110 h1         1 5ZK       0.044033
     16 H4           8.5440   -22.3890     2.6300 hc         1 5ZK       0.053367
     17 H5          10.1970   -22.9690     2.9080 hc         1 5ZK       0.053367
     18 H6           9.2930   -23.5160     1.4820 hc         1 5ZK       0.053367
     19 H7          11.6410   -27.8900     2.7750 h5         1 5ZK       0.047100
     20 H8           7.2200   -28.2070     5.7000 hn         1 5ZK       0.492000
     21 H9           6.6480   -25.9230     5.1880 hn         1 5ZK       0.376000
@<TRIPOS>BOND
     1     1     3 ar  
     2     1     8 ar  
     3     2     9 1   
     4     2    13 1   
     5     2    14 1   
     6     2    15 1   
     7     3     4 ar  
     8     3     9 1   
     9     4     7 ar  
    10     4    10 1   
    11     5     6 1   
    12     5     7 1   
    13     5    11 2   
    14     6    16 1   
    15     6    17 1   
    16     6    18 1   
    17     7    12 ar  
    18     8    12 ar  
    19     8    19 1   
    20     9    20 1   
    21    10    11 1   
    22    10    21 1   
@<TRIPOS>SUBSTRUCTURE
     1 5ZK         1 TEMP              0 ****  ****    0 ROOT
