@<TRIPOS>MOLECULE
5ZK
   21    22     1     0     0
SMALL
abcg2


@<TRIPOS>ATOM
      1 N12          9.9210   -28.2840     4.0240 nb         1 5ZK      -0.269000
      2 C01          8.4100   -29.9720     5.6250 c3         1 5ZK       0.228100
      3 C03          8.7970   -27.8150     4.5480 ca         1 5ZK       0.404900
      4 C04          8.4550   -26.4710     4.2470 ca         1 5ZK      -0.203200
      5 C07          8.7090   -24.4610     3.3180 cc         1 5ZK       0.247300
      6 C08          9.2020   -23.2850     2.5550 c3         1 5ZK      -0.096400
      7 C09          9.3100   -25.7440     3.4280 ca         1 5ZK      -0.014300
      8 C11         10.6710   -27.4880     3.2450 ca         1 5ZK       0.136900
      9 N02          8.0500   -28.6080     5.3230 nu         1 5ZK      -0.938100
     10 N05          7.4390   -25.6400     4.5700 na         1 5ZK      -0.042400
     11 N06          7.5930   -24.4400     4.0160 nd         1 5ZK      -0.510100
     12 N10         10.4500   -26.2440     2.9040 nb         1 5ZK      -0.152000
     13 H1           7.6460   -30.3860     6.2770 h1         1 5ZK       0.044033
     14 H2           8.4650   -30.5850     4.7250 h1         1 5ZK       0.044033
     15 H3           9.3710   -30.0310     6.1360 h1         1 5ZK       0.044033
     16 H4           8.5450   -22.4280     2.6940 hc         1 5ZK       0.053367
     17 H5          10.2050   -23.0010     2.8760 hc         1 5ZK       0.053367
     18 H6           9.2560   -23.5020     1.4870 hc         1 5ZK       0.053367
     19 H7          11.5740   -27.9490     2.8560 h5         1 5ZK       0.047100
     20 H8           7.1910   -28.2520     5.7050 hn         1 5ZK       0.492000
     21 H9           6.6380   -25.8170     5.1540 hn         1 5ZK       0.376000
@<TRIPOS>BOND
     1     1     3 ar  
     2     1     8 ar  
     3     2     9 1   
     4     2    13 1   
     5     2    14 1   
     6     2    15 1   
     7     3     4 ar  
     8     3     9 1   
     9     4     7 ar  
    10     4    10 1   
    11     5     6 1   
    12     5     7 1   
    13     5    11 2   
    14     6    16 1   
    15     6    17 1   
    16     6    18 1   
    17     7    12 ar  
    18     8    12 ar  
    19     8    19 1   
    20     9    20 1   
    21    10    11 1   
    22    10    21 1   
@<TRIPOS>SUBSTRUCTURE
     1 5ZK         1 TEMP              0 ****  ****    0 ROOT
