@<TRIPOS>MOLECULE
5ZM
   33    35     1     0     0
SMALL
bcc


@<TRIPOS>ATOM
      1 C1          -3.0570    -1.6640    -1.4670 c3         1 5ZM      -0.070600
      2 C2          -2.9540    -0.9810    -0.1020 c5         1 5ZM      -0.081700
      3 C3          -1.7280    -0.1180     0.0200 ca         1 5ZM      -0.140300
      4 C4          -0.3930    -0.4430    -0.0290 ca         1 5ZM      -0.062000
      5 C5           0.5750     0.5620     0.1150 cp         1 5ZM      -0.066000
      6 C6           0.1510     1.8790     0.3040 ca         1 5ZM      -0.082000
      7 C7          -1.1970     2.2210     0.3520 ca         1 5ZM      -0.165000
      8 C8          -2.1220     1.2040     0.2080 ca         1 5ZM       0.070600
      9 N9          -3.5080     1.2710     0.2210 ns         1 5ZM      -0.472100
     10 C10         -4.0810     0.0490     0.0480 c          1 5ZM       0.709500
     11 O11         -5.2710    -0.1800     0.0190 o          1 5ZM      -0.597500
     12 C12          2.0120     0.2310     0.0720 cp         1 5ZM      -0.043000
     13 C13          2.9320     1.0860    -0.5370 ca         1 5ZM      -0.095500
     14 C14          4.2840     0.7820    -0.5780 ca         1 5ZM      -0.169000
     15 C15          4.7150    -0.3980    -0.0050 ca         1 5ZM       0.136900
     16 C16          3.8400    -1.2750     0.6050 ca         1 5ZM      -0.169000
     17 C17          2.4920    -0.9510     0.6410 ca         1 5ZM      -0.095500
     18 F18          6.0220    -0.7040    -0.0450 f          1 5ZM      -0.142900
     19 C19         -3.0440    -2.0120     1.0250 c3         1 5ZM      -0.070600
     20 H11C        -2.2470    -2.3850    -1.5850 hc         1 5ZM       0.046200
     21 H12C        -4.0010    -2.2040    -1.5530 hc         1 5ZM       0.046200
     22 H13C        -2.9940    -0.9460    -2.2850 hc         1 5ZM       0.046200
     23 H191        -2.2140    -2.7140     0.9490 hc         1 5ZM       0.046200
     24 H192        -3.0010    -1.5430     2.0080 hc         1 5ZM       0.046200
     25 H193        -3.9730    -2.5790     0.9550 hc         1 5ZM       0.046200
     26 H4          -0.0890    -1.4700    -0.1980 ha         1 5ZM       0.138000
     27 H6           0.8860     2.6620     0.4390 ha         1 5ZM       0.135000
     28 H7          -1.5000     3.2480     0.5080 ha         1 5ZM       0.142000
     29 H9          -4.0380     2.1200     0.3490 hn         1 5ZM       0.339500
     30 H13          2.5930     2.0000    -1.0090 ha         1 5ZM       0.136000
     31 H17          1.8100    -1.6280     1.1400 ha         1 5ZM       0.136000
     32 H14          4.9870     1.4500    -1.0590 ha         1 5ZM       0.151000
     33 H16          4.2010    -2.1900     1.0550 ha         1 5ZM       0.151000
@<TRIPOS>BOND
     1     1     2 1   
     2     1    20 1   
     3     1    21 1   
     4     1    22 1   
     5     2     3 1   
     6     2    10 1   
     7     2    19 1   
     8     3     4 ar  
     9     3     8 ar  
    10     4     5 ar  
    11     4    26 1   
    12     5     6 ar  
    13     5    12 1   
    14     6     7 ar  
    15     6    27 1   
    16     7     8 ar  
    17     7    28 1   
    18     8     9 1   
    19     9    10 1   
    20     9    29 1   
    21    10    11 2   
    22    12    13 ar  
    23    12    17 ar  
    24    13    14 ar  
    25    13    30 1   
    26    14    15 ar  
    27    14    32 1   
    28    15    16 ar  
    29    15    18 1   
    30    16    17 ar  
    31    16    33 1   
    32    17    31 1   
    33    19    23 1   
    34    19    24 1   
    35    19    25 1   
@<TRIPOS>SUBSTRUCTURE
     1 5ZM         1 TEMP              0 ****  ****    0 ROOT
