@<TRIPOS>MOLECULE
5ZM
   33    35     1     0     0
SMALL
No Charge or Current Charge


@<TRIPOS>ATOM
      1 C1          -3.0670    -1.6960    -1.4690 c3         1 5ZM      -0.070600
      2 C2          -3.0040    -0.9860    -0.0930 c5         1 5ZM      -0.081700
      3 C3          -1.7680    -0.0920     0.0290 ca         1 5ZM      -0.140300
      4 C4          -0.4090    -0.4400    -0.0170 ca         1 5ZM      -0.044000
      5 C5           0.5810     0.5750     0.1180 cp         1 5ZM      -0.066000
      6 C6           0.1490     1.9250     0.2980 ca         1 5ZM      -0.064000
      7 C7          -1.2200     2.2580     0.3430 ca         1 5ZM      -0.147000
      8 C8          -2.1440     1.2200     0.2040 ca         1 5ZM      -0.022000
      9 N9          -3.5290     1.2600     0.2090 ns         1 5ZM      -0.146000
     10 C10         -4.1840     0.0580     0.0470 c          1 5ZM       0.567000
     11 O11         -5.3970    -0.1100     0.0230 o          1 5ZM      -0.522000
     12 C12          2.0380     0.2340     0.0730 cp         1 5ZM      -0.043000
     13 C13          2.9790     1.1160    -0.5200 ca         1 5ZM      -0.077500
     14 C14          4.3470     0.7940    -0.5630 ca         1 5ZM      -0.151000
     15 C15          4.7980    -0.4140    -0.0120 ca         1 5ZM       0.172000
     16 C16          3.8910    -1.3030     0.5800 ca         1 5ZM      -0.151000
     17 C17          2.5220    -0.9820     0.6220 ca         1 5ZM      -0.077500
     18 F18          6.1130    -0.7230    -0.0530 f          1 5ZM      -0.178000
     19 C19         -3.0690    -2.0370     1.0440 c3         1 5ZM      -0.070600
     20 H11C        -2.2260    -2.3880    -1.5990 hc         1 5ZM       0.046200
     21 H12C        -3.9930    -2.2730    -1.5800 hc         1 5ZM       0.046200
     22 H13C        -3.0270    -0.9700    -2.2900 hc         1 5ZM       0.046200
     23 H191        -2.2280    -2.7380     0.9870 hc         1 5ZM       0.046200
     24 H192        -3.0330    -1.5550     2.0280 hc         1 5ZM       0.046200
     25 H193        -3.9960    -2.6220     0.9950 hc         1 5ZM       0.046200
     26 H4          -0.1230    -1.4780    -0.1690 ha         1 5ZM       0.120000
     27 H6           0.8840     2.7170     0.4180 ha         1 5ZM       0.117000
     28 H7          -1.5440     3.2870     0.4830 ha         1 5ZM       0.124000
     29 H9          -4.0350     2.1290     0.3250 hn         1 5ZM       0.173000
     30 H13          2.6440     2.0500    -0.9630 ha         1 5ZM       0.118000
     31 H17          1.8330    -1.6770     1.0970 ha         1 5ZM       0.118000
     32 H14          5.0560     1.4770    -1.0230 ha         1 5ZM       0.133000
     33 H16          4.2470    -2.2370     1.0070 ha         1 5ZM       0.133000
@<TRIPOS>BOND
     1     1     2 1   
     2     1    20 1   
     3     1    21 1   
     4     1    22 1   
     5     2     3 1   
     6     2    10 1   
     7     2    19 1   
     8     3     4 ar  
     9     3     8 ar  
    10     4     5 ar  
    11     4    26 1   
    12     5     6 ar  
    13     5    12 1   
    14     6     7 ar  
    15     6    27 1   
    16     7     8 ar  
    17     7    28 1   
    18     8     9 1   
    19     9    10 1   
    20     9    29 1   
    21    10    11 2   
    22    12    13 ar  
    23    12    17 ar  
    24    13    14 ar  
    25    13    30 1   
    26    14    15 ar  
    27    14    32 1   
    28    15    16 ar  
    29    15    18 1   
    30    16    17 ar  
    31    16    33 1   
    32    17    31 1   
    33    19    23 1   
    34    19    24 1   
    35    19    25 1   
@<TRIPOS>SUBSTRUCTURE
     1 5ZM         1 TEMP              0 ****  ****    0 ROOT
