@<TRIPOS>MOLECULE
5ZN
   40    42     1     0     0
SMALL
bcc


@<TRIPOS>ATOM
      1 C8         107.0820    -1.0800   110.2380 c6         1 5ZN       0.188800
      2 C9         108.4270    -1.5380   110.7710 c6         1 5ZN       0.086500
      3 C1         110.4130    -3.8260   108.4770 ce         1 5ZN       0.449300
      4 C10        104.7840    -1.9390   110.3630 ca         1 5ZN       0.226600
      5 C11        104.3090    -0.9320   111.2320 ca         1 5ZN      -0.207000
      6 C12        102.9640    -0.7400   111.4090 ca         1 5ZN      -0.025000
      7 C13        102.4790    -2.4870   109.8740 ca         1 5ZN       0.116400
      8 C14        103.8270    -2.7040   109.6740 ca         1 5ZN      -0.224000
      9 C16        111.4850    -5.8690   108.4650 c          1 5ZN       0.843900
     10 C19        110.7430    -4.9950   106.2870 c          1 5ZN       0.726500
     11 C21        110.2600    -3.7680   107.0000 c6         1 5ZN      -0.273700
     12 C22        101.9990    -1.5090   110.7460 ca         1 5ZN      -0.240600
     13 C23        100.5780    -1.2720   111.0000 c          1 5ZN       0.591500
     14 C5         107.9560    -3.7810   110.0080 c6         1 5ZN       0.086500
     15 C6         106.5990    -3.3300   109.4840 c6         1 5ZN       0.188800
     16 N15        110.9600    -4.7600   109.1420 nf         1 5ZN      -0.598100
     17 N18        111.3370    -5.9310   107.0930 ns         1 5ZN      -0.632500
     18 N4         108.8980    -2.6800   110.0090 n          1 5ZN      -0.451800
     19 N7         106.1250    -2.1770   110.2230 nh         1 5ZN      -0.675000
     20 O17        112.0390    -6.7490   109.0700 o          1 5ZN      -0.536500
     21 O20        110.6350    -5.1550   105.0960 o          1 5ZN      -0.574500
     22 O24        100.1620    -0.4310   111.7690 o          1 5ZN      -0.524100
     23 O3         110.6930    -1.6110   109.1040 o          1 5ZN      -0.572100
     24 CL25       101.3830    -3.4760   108.9620 cl         1 5ZN      -0.106400
     25 H1         107.2080    -0.6840   109.2220 h1         1 5ZN       0.055200
     26 H2         106.7280    -0.2630   110.8600 h1         1 5ZN       0.055200
     27 H3         108.3340    -1.8350   111.8190 h1         1 5ZN       0.074700
     28 H4         109.1460    -0.7260   110.7080 h1         1 5ZN       0.074700
     29 H5         104.9950    -0.3240   111.8030 ha         1 5ZN       0.141000
     30 H6         102.6320     0.0250   112.1000 ha         1 5ZN       0.155000
     31 H7         104.1240    -3.4520   108.9550 ha         1 5ZN       0.147000
     32 H8         110.8040    -2.8990   106.6160 hc         1 5ZN       0.115700
     33 H9         109.2100    -3.5890   106.7460 hc         1 5ZN       0.115700
     34 H10         99.8770    -1.9170   110.4480 h4         1 5ZN       0.004200
     35 H11        107.8510    -4.1530   111.0300 h1         1 5ZN       0.074700
     36 H12        108.3080    -4.6060   109.3940 h1         1 5ZN       0.074700
     37 H13        106.6710    -3.1170   108.4090 h1         1 5ZN       0.055200
     38 H14        105.9160    -4.1670   109.6160 h1         1 5ZN       0.055200
     39 H15        111.6980    -6.7640   106.6410 hn         1 5ZN       0.344500
     40 C2         109.9850    -2.5950   109.2370 c          1 5ZN       0.592800
@<TRIPOS>BOND
     1     1     2 1   
     2     1    19 1   
     3     1    25 1   
     4     1    26 1   
     5     2    18 1   
     6     2    27 1   
     7     2    28 1   
     8     3    11 1   
     9     3    16 2   
    10     3    40 1   
    11     4     5 ar  
    12     4     8 ar  
    13     4    19 1   
    14     5     6 ar  
    15     5    29 1   
    16     6    12 ar  
    17     6    30 1   
    18     7     8 ar  
    19     7    12 ar  
    20     7    24 1   
    21     8    31 1   
    22     9    16 1   
    23     9    17 1   
    24     9    20 2   
    25    10    11 1   
    26    10    17 1   
    27    10    21 2   
    28    11    32 1   
    29    11    33 1   
    30    12    13 1   
    31    13    22 2   
    32    13    34 1   
    33    14    15 1   
    34    14    18 1   
    35    14    35 1   
    36    14    36 1   
    37    15    19 1   
    38    15    37 1   
    39    15    38 1   
    40    17    39 1   
    41    18    40 1   
    42    23    40 2   
@<TRIPOS>SUBSTRUCTURE
     1 5ZN         1 TEMP              0 ****  ****    0 ROOT
