@<TRIPOS>MOLECULE
5ZN
   40    42     1     0     0
SMALL
No Charge or Current Charge


@<TRIPOS>ATOM
      1 C8         106.4050    -0.9100   109.2420 c6         1 5ZN       0.188800
      2 C9         107.9460    -1.0720   109.2750 c6         1 5ZN       0.086500
      3 C1         110.6190    -3.8620   108.3900 ce         1 5ZN       0.449300
      4 C10        104.4740    -1.9660   110.4380 ca         1 5ZN       0.365000
      5 C11        104.3680    -1.1490   111.5730 ca         1 5ZN      -0.189000
      6 C12        103.1400    -0.9910   112.2330 ca         1 5ZN      -0.007000
      7 C13        102.0970    -2.4750   110.6170 ca         1 5ZN       0.208000
      8 C14        103.3290    -2.6260   109.9660 ca         1 5ZN      -0.206000
      9 C16        110.6790    -6.2490   108.0980 c          1 5ZN       0.701400
     10 C19        112.4460    -4.9400   107.1250 c          1 5ZN       0.584000
     11 C21        112.1180    -3.8370   108.0990 c6         1 5ZN      -0.273700
     12 C22        101.9890    -1.6550   111.7590 ca         1 5ZN      -0.240600
     13 C23        100.6750    -1.4800   112.4730 c          1 5ZN       0.591500
     14 C5         107.5940    -3.5820   108.9770 c6         1 5ZN       0.086500
     15 C6         106.0640    -3.3120   109.0080 c6         1 5ZN       0.188800
     16 N15        110.0730    -5.0540   108.5270 nf         1 5ZN      -0.598100
     17 N18        111.8290    -6.1110   107.3990 ns         1 5ZN      -0.498500
     18 N4         108.5000    -2.3910   108.8050 n          1 5ZN      -0.384800
     19 N7         105.7260    -2.1030   109.7970 nh         1 5ZN      -0.813400
     20 O17        110.1750    -7.3360   108.3030 o          1 5ZN      -0.461000
     21 O20        113.1200    -4.7770   106.1230 o          1 5ZN      -0.499000
     22 O24        100.5480    -0.7720   113.4670 o          1 5ZN      -0.524100
     23 O3         110.5590    -1.4550   108.5260 o          1 5ZN      -0.572100
     24 Cl25       100.7070    -3.3350   109.9570 cl         1 5ZN      -0.198000
     25 H1         106.0870    -0.7530   108.2000 h1         1 5ZN       0.055200
     26 H2         106.1340    -0.0020   109.8000 h1         1 5ZN       0.055200
     27 H3         108.2780    -0.9200   110.3110 h1         1 5ZN       0.074700
     28 H4         108.3790    -0.2550   108.6810 h1         1 5ZN       0.074700
     29 H5         105.2490    -0.6390   111.9520 ha         1 5ZN       0.123000
     30 H6         103.0880    -0.3520   113.1140 ha         1 5ZN       0.137000
     31 H7         103.3820    -3.2520   109.0820 ha         1 5ZN       0.129000
     32 H8         112.6000    -4.0970   109.0490 hc         1 5ZN       0.115700
     33 H9         112.4980    -2.8750   107.7360 hc         1 5ZN       0.115700
     34 H10         99.7970    -2.0240   112.0640 h4         1 5ZN       0.004200
     35 H11        107.8680    -4.0890   109.9130 h1         1 5ZN       0.074700
     36 H12        107.7580    -4.2900   108.1550 h1         1 5ZN       0.074700
     37 H13        105.7060    -3.1900   107.9750 h1         1 5ZN       0.055200
     38 H14        105.5650    -4.2010   109.4220 h1         1 5ZN       0.055200
     39 H15        112.1460    -6.9260   106.8980 hn         1 5ZN       0.344500
     40 C2         109.9100    -2.5000   108.5730 c          1 5ZN       0.525800
@<TRIPOS>BOND
     1     1     2 1   
     2     1    19 1   
     3     1    25 1   
     4     1    26 1   
     5     2    18 1   
     6     2    27 1   
     7     2    28 1   
     8     3    11 1   
     9     3    16 2   
    10     3    40 1   
    11     4     5 ar  
    12     4     8 ar  
    13     4    19 1   
    14     5     6 ar  
    15     5    29 1   
    16     6    12 ar  
    17     6    30 1   
    18     7     8 ar  
    19     7    12 ar  
    20     7    24 1   
    21     8    31 1   
    22     9    16 1   
    23     9    17 1   
    24     9    20 2   
    25    10    11 1   
    26    10    17 1   
    27    10    21 2   
    28    11    32 1   
    29    11    33 1   
    30    12    13 1   
    31    13    22 2   
    32    13    34 1   
    33    14    15 1   
    34    14    18 1   
    35    14    35 1   
    36    14    36 1   
    37    15    19 1   
    38    15    37 1   
    39    15    38 1   
    40    17    39 1   
    41    18    40 1   
    42    23    40 2   
@<TRIPOS>SUBSTRUCTURE
     1 5ZN         1 TEMP              0 ****  ****    0 ROOT
