@<TRIPOS>MOLECULE
5ZO
   37    39     1     0     0
SMALL
No Charge or Current Charge


@<TRIPOS>ATOM
      1 O1           3.6360    16.1300    17.8470 os         1 5ZO      -0.355100
      2 C1           4.1170    15.4310    19.0090 c3         1 5ZO       0.153900
      3 C2           4.4720    16.4960    16.8120 ca         1 5ZO       0.117100
      4 C3           5.8560    16.2200    16.8160 ca         1 5ZO      -0.181000
      5 C4           6.6570    16.6190    15.7310 ca         1 5ZO      -0.065000
      6 C5           3.9080    17.1760    15.7210 ca         1 5ZO      -0.181000
      7 C6           4.7100    17.5750    14.6370 ca         1 5ZO      -0.065000
      8 C7           6.0870    17.2870    14.6310 ca         1 5ZO      -0.055800
      9 C8           6.9230    17.7350    13.4840 ce         1 5ZO      -0.194200
     10 C9           7.7730    17.0310    12.6700 cf         1 5ZO      -0.050800
     11 C10          7.9670    15.5120    12.8200 c3         1 5ZO      -0.194200
     12 C11          9.4110    15.1890    13.2370 c          1 5ZO       0.731000
     13 O2          10.2530    15.0740    12.3600 o          1 5ZO      -0.725000
     14 O3           9.6810    15.1970    14.4280 o          1 5ZO      -0.725000
     15 C12          8.4940    17.6800    11.5510 cd         1 5ZO       0.501500
     16 N1           8.5220    17.1170    10.3290 nc         1 5ZO      -0.508100
     17 C13          9.1700    18.0140     9.4860 ca         1 5ZO       0.112400
     18 C14          9.4070    17.7680     8.1230 ca         1 5ZO      -0.054000
     19 C15         10.0670    18.7400     7.3420 ca         1 5ZO      -0.127000
     20 C16         10.4850    19.9540     7.9250 ca         1 5ZO      -0.122000
     21 C17         10.2440    20.1980     9.2900 ca         1 5ZO      -0.078000
     22 C18          9.5860    19.2120    10.0400 ca         1 5ZO      -0.187000
     23 S1           9.1890    19.3150    11.7420 ss         1 5ZO      -0.036200
     24 H1           3.2900    15.2370    19.7040 h1         1 5ZO       0.033367
     25 H2           4.5590    14.4660    18.7290 h1         1 5ZO       0.033367
     26 H3           4.8730    16.0260    19.5370 h1         1 5ZO       0.033367
     27 H4           6.3270    15.7040    17.6470 ha         1 5ZO       0.111000
     28 H5           7.7240    16.4160    15.7480 ha         1 5ZO       0.136000
     29 H6           2.8430    17.3970    15.7150 ha         1 5ZO       0.111000
     30 H7           4.2610    18.1020    13.7980 ha         1 5ZO       0.136000
     31 H8           6.7860    18.7950    13.2640 ha         1 5ZO       0.155000
     32 H9           7.2780    15.1450    13.5870 hc         1 5ZO       0.044700
     33 H10          7.7610    15.0590    11.8440 hc         1 5ZO       0.044700
     34 H12          9.0830    16.8330     7.6740 ha         1 5ZO       0.134000
     35 H13         10.2520    18.5520     6.2870 ha         1 5ZO       0.103000
     36 H14         10.9930    20.7020     7.3210 ha         1 5ZO       0.099000
     37 H15         10.5610    21.1310     9.7510 ha         1 5ZO       0.111000
@<TRIPOS>BOND
     1     1     2 1   
     2     1     3 1   
     3     2    24 1   
     4     2    25 1   
     5     2    26 1   
     6     3     4 ar  
     7     3     6 ar  
     8     4     5 ar  
     9     4    27 1   
    10     5     8 ar  
    11     5    28 1   
    12     6     7 ar  
    13     6    29 1   
    14     7     8 ar  
    15     7    30 1   
    16     8     9 1   
    17     9    10 2   
    18     9    31 1   
    19    10    11 1   
    20    10    15 1   
    21    11    12 1   
    22    11    32 1   
    23    11    33 1   
    24    12    13 1   
    25    12    14 1   
    26    15    16 2   
    27    15    23 1   
    28    16    17 1   
    29    17    18 ar  
    30    17    22 ar  
    31    18    19 ar  
    32    18    34 1   
    33    19    20 ar  
    34    19    35 1   
    35    20    21 ar  
    36    20    36 1   
    37    21    22 ar  
    38    21    37 1   
    39    22    23 1   
@<TRIPOS>SUBSTRUCTURE
     1 5ZO         1 TEMP              0 ****  ****    0 ROOT
