@<TRIPOS>MOLECULE
5ZO
   37    39     1     0     0
SMALL
abcg2


@<TRIPOS>ATOM
      1 O1           3.8710    16.2100    17.9760 os         1 5ZO      -0.355100
      2 C1           4.3540    15.2370    18.8790 c3         1 5ZO       0.153900
      3 C2           4.6270    16.5360    16.9130 ca         1 5ZO       0.117100
      4 C3           5.8620    15.9640    16.6170 ca         1 5ZO      -0.181000
      5 C4           6.5630    16.3700    15.4900 ca         1 5ZO      -0.065000
      6 C5           4.1200    17.5320    16.0740 ca         1 5ZO      -0.181000
      7 C6           4.8330    17.9310    14.9630 ca         1 5ZO      -0.065000
      8 C7           6.0600    17.3440    14.6270 ca         1 5ZO      -0.055800
      9 C8           6.7730    17.8160    13.4430 ce         1 5ZO      -0.194200
     10 C9           7.5170    17.0980    12.5810 cf         1 5ZO      -0.050800
     11 C10          7.6790    15.6110    12.5940 c3         1 5ZO      -0.194200
     12 C11          9.0540    15.1160    13.1140 c          1 5ZO       0.731000
     13 O2           9.4010    13.9830    12.7370 o          1 5ZO      -0.725000
     14 O3           9.6680    15.8770    13.8870 o          1 5ZO      -0.725000
     15 C12          8.2090    17.7790    11.4890 cd         1 5ZO       0.501500
     16 N1           8.8660    17.1550    10.5700 nc         1 5ZO      -0.508100
     17 C13          9.4260    18.0150     9.6610 ca         1 5ZO       0.112400
     18 C14         10.1910    17.6380     8.5560 ca         1 5ZO      -0.054000
     19 C15         10.6910    18.6220     7.7240 ca         1 5ZO      -0.127000
     20 C16         10.4410    19.9740     7.9770 ca         1 5ZO      -0.122000
     21 C17          9.6850    20.3680     9.0690 ca         1 5ZO      -0.078000
     22 C18          9.1850    19.3770     9.9040 ca         1 5ZO      -0.187000
     23 S1           8.2290    19.5360    11.3360 ss         1 5ZO      -0.036200
     24 H1           3.6010    15.1350    19.6560 h1         1 5ZO       0.033367
     25 H2           4.4960    14.2660    18.3970 h1         1 5ZO       0.033367
     26 H3           5.2970    15.5410    19.3410 h1         1 5ZO       0.033367
     27 H4           6.3030    15.2110    17.2560 ha         1 5ZO       0.111000
     28 H5           7.5410    15.9460    15.3030 ha         1 5ZO       0.136000
     29 H6           3.1690    17.9940    16.3080 ha         1 5ZO       0.111000
     30 H7           4.4260    18.7120    14.3320 ha         1 5ZO       0.136000
     31 H8           6.6450    18.8790    13.2550 ha         1 5ZO       0.155000
     32 H9           6.9020    15.1620    13.2190 hc         1 5ZO       0.044700
     33 H10          7.5180    15.2230    11.5870 hc         1 5ZO       0.044700
     34 H12         10.3810    16.5900     8.3640 ha         1 5ZO       0.134000
     35 H13         11.2860    18.3430     6.8640 ha         1 5ZO       0.103000
     36 H14         10.8430    20.7270     7.3120 ha         1 5ZO       0.099000
     37 H15          9.4940    21.4150     9.2620 ha         1 5ZO       0.111000
@<TRIPOS>BOND
     1     1     2 1   
     2     1     3 1   
     3     2    24 1   
     4     2    25 1   
     5     2    26 1   
     6     3     4 ar  
     7     3     6 ar  
     8     4     5 ar  
     9     4    27 1   
    10     5     8 ar  
    11     5    28 1   
    12     6     7 ar  
    13     6    29 1   
    14     7     8 ar  
    15     7    30 1   
    16     8     9 1   
    17     9    10 2   
    18     9    31 1   
    19    10    11 1   
    20    10    15 1   
    21    11    12 1   
    22    11    32 1   
    23    11    33 1   
    24    12    13 1   
    25    12    14 1   
    26    15    16 2   
    27    15    23 1   
    28    16    17 1   
    29    17    18 ar  
    30    17    22 ar  
    31    18    19 ar  
    32    18    34 1   
    33    19    20 ar  
    34    19    35 1   
    35    20    21 ar  
    36    20    36 1   
    37    21    22 ar  
    38    21    37 1   
    39    22    23 1   
@<TRIPOS>SUBSTRUCTURE
     1 5ZO         1 TEMP              0 ****  ****    0 ROOT
