@<TRIPOS>MOLECULE
5ZP
   71    76     1     0     0
SMALL
No Charge or Current Charge


@<TRIPOS>ATOM
      1 C2          34.1590    36.2540    62.7840 cp         1 5ZP      -0.076000
      2 C3          34.1570    36.9220    61.5680 ca         1 5ZP       0.003800
      3 C4          34.8950    38.0880    61.3300 ca         1 5ZP      -0.071300
      4 C5          35.6760    38.5760    62.4040 ca         1 5ZP      -0.073000
      5 C6          35.6930    37.9070    63.6540 ca         1 5ZP      -0.137000
      6 N1          33.3130    36.1760    60.7320 na         1 5ZP      -0.327300
      7 C7          34.9320    36.7350    63.8570 ca         1 5ZP      -0.056000
      8 C8          32.7800    35.0470    61.3560 ca         1 5ZP       0.442500
      9 C9          33.2980    35.0890    62.6490 cp         1 5ZP      -0.148000
     10 C10         32.9830    34.0700    63.5570 ca         1 5ZP       0.015000
     11 C11         32.1290    33.0350    63.1090 ca         1 5ZP      -0.235500
     12 C12         31.6570    33.0830    61.7630 ca         1 5ZP       0.446300
     13 C14         34.8740    38.7770    59.9960 cx         1 5ZP      -0.090400
     14 C15         34.6690    40.2700    59.8770 cx         1 5ZP      -0.124400
     15 C16         33.5920    39.3220    59.4100 cx         1 5ZP      -0.124400
     16 C17         31.8280    31.9320    64.0260 cc         1 5ZP       0.496500
     17 C18         30.7300    32.0410    61.1560 c3         1 5ZP      -0.154400
     18 C20         31.7180    30.9100    65.8660 cc         1 5ZP       0.416300
     19 C23         31.9340    30.6460    67.3420 c3         1 5ZP      -0.074000
     20 C24         33.4410    30.8260    67.7140 c3         1 5ZP      -0.158400
     21 C25         30.9760    31.5020    68.2350 c3         1 5ZP      -0.056700
     22 C26         34.3560    30.0970    66.7240 c          1 5ZP       0.596100
     23 C29         35.8430    30.4440    64.7290 c3         1 5ZP       0.159000
     24 C30         31.1420    31.2130    69.7490 c3         1 5ZP      -0.091100
     25 C31         29.4900    31.3300    67.8270 c3         1 5ZP      -0.091100
     26 C32         37.2760    30.1570    65.2240 c3         1 5ZP      -0.100100
     27 C33         35.7990    31.4390    63.5700 ca         1 5ZP      -0.111300
     28 C34         36.4470    32.6910    63.6550 ca         1 5ZP      -0.093500
     29 C35         36.4070    33.5870    62.5730 ca         1 5ZP      -0.109000
     30 C36         35.7140    33.2460    61.4000 ca         1 5ZP      -0.101000
     31 C37         35.0500    32.0120    61.3150 ca         1 5ZP      -0.109000
     32 C38         35.0900    31.1140    62.3950 ca         1 5ZP      -0.093500
     33 N13         31.9730    34.0820    60.9000 nb         1 5ZP      -0.717000
     34 N21         31.2980    30.0550    64.9520 nd         1 5ZP      -0.339000
     35 N22         31.3660    30.7220    63.7550 nd         1 5ZP      -0.361000
     36 N28         34.9940    30.9130    65.8190 ns         1 5ZP      -0.500900
     37 O19         32.0700    32.1120    65.3490 os         1 5ZP      -0.299000
     38 O27         34.5040    28.8850    66.7380 o          1 5ZP      -0.591100
     39 H1          36.2750    39.4740    62.2710 ha         1 5ZP       0.116000
     40 H2          36.3010    38.2990    64.4660 ha         1 5ZP       0.117000
     41 H3          33.1060    36.4140    59.7740 hn         1 5ZP       0.369000
     42 H4          34.9470    36.2150    64.8120 ha         1 5ZP       0.117000
     43 H5          33.4050    34.0840    64.5590 ha         1 5ZP       0.130000
     44 H6          35.5750    38.3280    59.2960 hc         1 5ZP       0.084700
     45 H7          35.2420    40.8010    59.1200 hc         1 5ZP       0.074700
     46 H8          34.4810    40.8360    60.7860 hc         1 5ZP       0.074700
     47 H9          32.6870    39.2520    60.0090 hc         1 5ZP       0.074700
     48 H10         33.4380    39.2150    58.3390 hc         1 5ZP       0.074700
     49 H11         30.3680    32.3410    60.1650 hc         1 5ZP       0.066700
     50 H12         31.2460    31.0830    61.0350 hc         1 5ZP       0.066700
     51 H13         29.8460    31.8860    61.7850 hc         1 5ZP       0.066700
     52 H14         31.6850    29.5910    67.5150 hc         1 5ZP       0.104700
     53 H15         33.6190    30.4040    68.7100 hc         1 5ZP       0.065700
     54 H16         33.6750    31.8970    67.7150 hc         1 5ZP       0.065700
     55 H17         31.2290    32.5590    68.0800 hc         1 5ZP       0.051700
     56 H18         35.4290    29.4920    64.3680 h1         1 5ZP       0.082700
     57 H19         30.4120    31.7850    70.3350 hc         1 5ZP       0.039200
     58 H20         30.9910    30.1480    69.9640 hc         1 5ZP       0.039200
     59 H21         32.1370    31.5020    70.1040 hc         1 5ZP       0.039200
     60 H22         28.8390    31.9290    68.4750 hc         1 5ZP       0.039200
     61 H23         29.3170    31.6610    66.7960 hc         1 5ZP       0.039200
     62 H24         29.1810    30.2810    67.9100 hc         1 5ZP       0.039200
     63 H25         37.2700    29.3590    65.9750 hc         1 5ZP       0.043033
     64 H26         37.9100    29.8330    64.3900 hc         1 5ZP       0.043033
     65 H27         37.7280    31.0460    65.6770 hc         1 5ZP       0.043033
     66 H28         36.9840    32.9730    64.5570 ha         1 5ZP       0.111000
     67 H29         36.9100    34.5490    62.6450 ha         1 5ZP       0.113500
     68 H30         35.6810    33.9420    60.5660 ha         1 5ZP       0.112000
     69 H31         34.5020    31.7520    60.4120 ha         1 5ZP       0.113500
     70 H32         34.5710    30.1610    62.3150 ha         1 5ZP       0.111000
     71 H33         34.8120    31.9060    65.8860 hn         1 5ZP       0.308500
@<TRIPOS>BOND
     1     1     2 ar  
     2     1     7 ar  
     3     1     9 1   
     4     2     3 ar  
     5     2     6 1   
     6     3     4 ar  
     7     3    13 1   
     8     4     5 ar  
     9     4    39 1   
    10     5     7 ar  
    11     5    40 1   
    12     6     8 1   
    13     6    41 1   
    14     7    42 1   
    15     8     9 ar  
    16     8    33 ar  
    17     9    10 ar  
    18    10    11 ar  
    19    10    43 1   
    20    11    12 ar  
    21    11    16 1   
    22    12    17 1   
    23    12    33 ar  
    24    13    14 1   
    25    13    15 1   
    26    13    44 1   
    27    14    15 1   
    28    14    45 1   
    29    14    46 1   
    30    15    47 1   
    31    15    48 1   
    32    16    35 2   
    33    16    37 1   
    34    17    49 1   
    35    17    50 1   
    36    17    51 1   
    37    18    19 1   
    38    18    34 2   
    39    18    37 1   
    40    19    20 1   
    41    19    21 1   
    42    19    52 1   
    43    20    22 1   
    44    20    53 1   
    45    20    54 1   
    46    21    24 1   
    47    21    25 1   
    48    21    55 1   
    49    22    36 1   
    50    22    38 2   
    51    23    26 1   
    52    23    27 1   
    53    23    36 1   
    54    23    56 1   
    55    24    57 1   
    56    24    58 1   
    57    24    59 1   
    58    25    60 1   
    59    25    61 1   
    60    25    62 1   
    61    26    63 1   
    62    26    64 1   
    63    26    65 1   
    64    27    28 ar  
    65    27    32 ar  
    66    28    29 ar  
    67    28    66 1   
    68    29    30 ar  
    69    29    67 1   
    70    30    31 ar  
    71    30    68 1   
    72    31    32 ar  
    73    31    69 1   
    74    32    70 1   
    75    34    35 1   
    76    36    71 1   
@<TRIPOS>SUBSTRUCTURE
     1 5ZP         1 TEMP              0 ****  ****    0 ROOT
