@<TRIPOS>MOLECULE
5ZP
   71    76     1     0     0
SMALL
bcc


@<TRIPOS>ATOM
      1 C2          34.2250    36.7900    63.0960 cp         1 5ZP      -0.076000
      2 C3          34.2050    37.4630    61.8600 ca         1 5ZP       0.003800
      3 C4          34.8160    38.7020    61.6660 ca         1 5ZP      -0.071300
      4 C5          35.4590    39.2430    62.7710 ca         1 5ZP      -0.091000
      5 C6          35.4880    38.5930    64.0110 ca         1 5ZP      -0.155000
      6 N1          33.5040    36.7060    60.9470 na         1 5ZP      -0.277000
      7 C7          34.8740    37.3660    64.1860 ca         1 5ZP      -0.074000
      8 C8          33.0730    35.5660    61.5470 ca         1 5ZP       0.507800
      9 C9          33.4950    35.5660    62.8920 cp         1 5ZP      -0.213300
     10 C10         33.1460    34.4750    63.6570 ca         1 5ZP      -0.003000
     11 C11         32.4060    33.4510    63.0600 ca         1 5ZP      -0.300800
     12 C12         32.0340    33.5610    61.6970 ca         1 5ZP       0.511600
     13 C14         34.7700    39.3560    60.3340 cx         1 5ZP      -0.090400
     14 C15         34.7400    40.8440    60.1960 cx         1 5ZP      -0.124400
     15 C16         33.5120    40.0480    59.8830 cx         1 5ZP      -0.124400
     16 C17         32.0670    32.2860    63.8560 cc         1 5ZP       0.540900
     17 C18         31.2460    32.5060    60.9860 c3         1 5ZP      -0.154400
     18 C20         31.8880    31.1320    65.6280 cc         1 5ZP       0.460700
     19 C23         31.9850    30.8160    67.0760 c3         1 5ZP      -0.074000
     20 C24         33.4500    30.9090    67.5340 c3         1 5ZP      -0.158400
     21 C25         31.0370    31.7030    67.9110 c3         1 5ZP      -0.056700
     22 C26         34.3440    30.0770    66.6370 c          1 5ZP       0.663100
     23 C29         36.2440    30.1350    65.0760 c3         1 5ZP       0.159000
     24 C30         31.0720    31.3000    69.3820 c3         1 5ZP      -0.091100
     25 C31         29.6060    31.6220    67.3840 c3         1 5ZP      -0.091100
     26 C32         37.6390    30.7360    65.1920 c3         1 5ZP      -0.100100
     27 C33         35.6690    30.2740    63.6800 ca         1 5ZP      -0.111300
     28 C34         35.5080    31.5300    63.0970 ca         1 5ZP      -0.111500
     29 C35         34.9900    31.6540    61.8170 ca         1 5ZP      -0.127000
     30 C36         34.6110    30.5230    61.1030 ca         1 5ZP      -0.119000
     31 C37         34.7550    29.2700    61.6800 ca         1 5ZP      -0.127000
     32 C38         35.2830    29.1490    62.9600 ca         1 5ZP      -0.111500
     33 N13         32.3710    34.6140    60.9610 nb         1 5ZP      -0.717000
     34 N21         31.4710    30.3970    64.6620 nd         1 5ZP      -0.339000
     35 N22         31.5840    31.1390    63.5150 nd         1 5ZP      -0.361000
     36 N28         35.3620    30.7370    66.0600 ns         1 5ZP      -0.567900
     37 O19         32.2800    32.3390    65.1860 os         1 5ZP      -0.387800
     38 O27         34.1270    28.8870    66.4560 o          1 5ZP      -0.591100
     39 H1          35.9550    40.2000    62.6690 ha         1 5ZP       0.134000
     40 H2          36.0010    39.0610    64.8410 ha         1 5ZP       0.135000
     41 H3          33.3310    36.9530    59.9860 hn         1 5ZP       0.318700
     42 H4          34.8970    36.8660    65.1450 ha         1 5ZP       0.135000
     43 H5          33.4490    34.4140    64.6950 ha         1 5ZP       0.148000
     44 H6          35.3050    38.8200    59.5540 hc         1 5ZP       0.084700
     45 H7          35.2910    41.2850    59.3750 hc         1 5ZP       0.074700
     46 H8          34.7360    41.4440    61.0970 hc         1 5ZP       0.074700
     47 H9          32.6890    40.0990    60.5860 hc         1 5ZP       0.074700
     48 H10         33.2120    39.9390    58.8490 hc         1 5ZP       0.074700
     49 H11         31.0080    32.8500    59.9820 hc         1 5ZP       0.066700
     50 H12         31.8090    31.5750    60.9130 hc         1 5ZP       0.066700
     51 H13         30.3200    32.2680    61.5080 hc         1 5ZP       0.066700
     52 H14         31.6540    29.7780    67.1740 hc         1 5ZP       0.104700
     53 H15         33.5340    30.5120    68.5470 hc         1 5ZP       0.065700
     54 H16         33.7680    31.9540    67.5730 hc         1 5ZP       0.065700
     55 H17         31.3810    32.7400    67.8300 hc         1 5ZP       0.051700
     56 H18         36.3100    29.0730    65.3120 h1         1 5ZP       0.082700
     57 H19         30.3510    31.8880    69.9510 hc         1 5ZP       0.039200
     58 H20         30.8090    30.2470    69.5030 hc         1 5ZP       0.039200
     59 H21         32.0480    31.4600    69.8390 hc         1 5ZP       0.039200
     60 H22         28.9390    32.2160    68.0090 hc         1 5ZP       0.039200
     61 H23         29.5080    31.9960    66.3640 hc         1 5ZP       0.039200
     62 H24         29.2450    30.5920    67.3980 hc         1 5ZP       0.039200
     63 H25         38.0470    30.5610    66.1880 hc         1 5ZP       0.043033
     64 H26         38.3070    30.2780    64.4640 hc         1 5ZP       0.043033
     65 H27         37.6350    31.8120    65.0110 hc         1 5ZP       0.043033
     66 H28         35.7910    32.4250    63.6400 ha         1 5ZP       0.129000
     67 H29         34.8790    32.6360    61.3740 ha         1 5ZP       0.131500
     68 H30         34.2070    30.6200    60.1040 ha         1 5ZP       0.130000
     69 H31         34.4570    28.3830    61.1350 ha         1 5ZP       0.131500
     70 H32         35.3990    28.1660    63.4030 ha         1 5ZP       0.129000
     71 H33         35.4420    31.7310    66.2110 hn         1 5ZP       0.308500
@<TRIPOS>BOND
     1     1     2 ar  
     2     1     7 ar  
     3     1     9 1   
     4     2     3 ar  
     5     2     6 1   
     6     3     4 ar  
     7     3    13 1   
     8     4     5 ar  
     9     4    39 1   
    10     5     7 ar  
    11     5    40 1   
    12     6     8 1   
    13     6    41 1   
    14     7    42 1   
    15     8     9 ar  
    16     8    33 ar  
    17     9    10 ar  
    18    10    11 ar  
    19    10    43 1   
    20    11    12 ar  
    21    11    16 1   
    22    12    17 1   
    23    12    33 ar  
    24    13    14 1   
    25    13    15 1   
    26    13    44 1   
    27    14    15 1   
    28    14    45 1   
    29    14    46 1   
    30    15    47 1   
    31    15    48 1   
    32    16    35 2   
    33    16    37 1   
    34    17    49 1   
    35    17    50 1   
    36    17    51 1   
    37    18    19 1   
    38    18    34 2   
    39    18    37 1   
    40    19    20 1   
    41    19    21 1   
    42    19    52 1   
    43    20    22 1   
    44    20    53 1   
    45    20    54 1   
    46    21    24 1   
    47    21    25 1   
    48    21    55 1   
    49    22    36 1   
    50    22    38 2   
    51    23    26 1   
    52    23    27 1   
    53    23    36 1   
    54    23    56 1   
    55    24    57 1   
    56    24    58 1   
    57    24    59 1   
    58    25    60 1   
    59    25    61 1   
    60    25    62 1   
    61    26    63 1   
    62    26    64 1   
    63    26    65 1   
    64    27    28 ar  
    65    27    32 ar  
    66    28    29 ar  
    67    28    66 1   
    68    29    30 ar  
    69    29    67 1   
    70    30    31 ar  
    71    30    68 1   
    72    31    32 ar  
    73    31    69 1   
    74    32    70 1   
    75    34    35 1   
    76    36    71 1   
@<TRIPOS>SUBSTRUCTURE
     1 5ZP         1 TEMP              0 ****  ****    0 ROOT
