@<TRIPOS>MOLECULE
5ZQ
   57    61     1     0     0
SMALL
abcg2


@<TRIPOS>ATOM
      1 N1          29.8110    15.7860    -2.8400 n2         1 5ZQ      -0.576900
      2 N3          30.8560    13.8860    -7.1530 nb         1 5ZQ      -0.669000
      3 C4          25.8220    14.4100    -2.2260 c3         1 5ZQ      -0.031800
      4 C5          27.8710    15.7610    -1.3570 cc         1 5ZQ      -0.205900
      5 C6          28.5540    15.9480    -2.6550 ce         1 5ZQ       0.553500
      6 C7          27.7430    16.4190    -3.8060 ca         1 5ZQ      -0.135900
      7 C8          26.6540    17.2700    -3.6080 ca         1 5ZQ      -0.067000
      8 C10         26.2840    17.3630    -5.9680 ca         1 5ZQ       0.134000
      9 C13         30.6370    15.3190    -1.7200 c3         1 5ZQ       0.102200
     10 C17         30.8140    12.9400    -6.2060 ca         1 5ZQ       0.311300
     11 C20         28.5130    12.4620    -6.6730 ca         1 5ZQ      -0.077000
     12 C21         29.6610    12.2090    -5.9340 ca         1 5ZQ      -0.134000
     13 C22         28.3860    16.2660    -0.1830 cd         1 5ZQ      -0.116200
     14 C24         30.0670    17.9380     0.6980 cc         1 5ZQ       0.416800
     15 C11         27.3590    16.5110    -6.1920 ca         1 5ZQ      -0.112500
     16 C12         28.0860    16.0460    -5.1080 ca         1 5ZQ      -0.067000
     17 C14         31.9820    14.8370    -2.2480 c3         1 5ZQ      -0.130400
     18 C16         32.0850    12.7220    -5.4170 c3         1 5ZQ       0.056700
     19 C18         29.7470    14.1230    -7.8580 ca         1 5ZQ       0.328900
     20 C19         28.5550    13.4380    -7.6590 ca         1 5ZQ      -0.164000
     21 C2          26.2020    15.1520     0.1530 cd         1 5ZQ      -0.199300
     22 C23         30.7610    16.4400    -0.7450 cc         1 5ZQ       0.395800
     23 C25         29.2030    18.7360     1.6010 c3         1 5ZQ      -0.127400
     24 C3          26.6060    15.1080    -1.1540 cc         1 5ZQ      -0.060300
     25 C9          25.9230    17.7510    -4.6850 ca         1 5ZQ      -0.112500
     26 N2          32.2770    13.7470    -4.3990 ns         1 5ZQ      -0.490900
     27 N4          29.6420    16.8670    -0.0580 na         1 5ZQ      -0.267800
     28 N5          31.7810    17.1890    -0.4390 nd         1 5ZQ      -0.339000
     29 N6          31.3430    18.1350     0.4790 nd         1 5ZQ      -0.352000
     30 O1          31.1550    12.6460    -2.7690 o          1 5ZQ      -0.626100
     31 S1          27.3510    15.9700     1.1610 ss         1 5ZQ       0.237000
     32 CL1         25.3630    17.9530    -7.3330 cl         1 5ZQ      -0.209000
     33 H5          26.4790    14.0140    -3.0000 hc         1 5ZQ       0.051033
     34 H6          25.2530    13.5820    -1.8050 hc         1 5ZQ       0.051033
     35 H4          25.1140    15.0860    -2.7110 hc         1 5ZQ       0.051033
     36 H7          26.3780    17.5700    -2.6060 ha         1 5ZQ       0.132000
     37 H11         30.1390    14.4870    -1.2100 h1         1 5ZQ       0.088700
     38 H19         27.6030    11.9090    -6.4810 ha         1 5ZQ       0.121000
     39 H20         29.6700    11.4590    -5.1550 ha         1 5ZQ       0.138000
     40 H3          24.9430    14.7050     1.8370 hc         1 5ZQ       0.051700
     41 H1          24.0670    15.1190     0.3610 hc         1 5ZQ       0.051700
     42 H2          24.8400    13.5410     0.5140 hc         1 5ZQ       0.051700
     43 H9          27.6170    16.2130    -7.1980 ha         1 5ZQ       0.131500
     44 H10         28.9220    15.3790    -5.2650 ha         1 5ZQ       0.132000
     45 H13         32.6060    14.5100    -1.4140 hc         1 5ZQ       0.082200
     46 H12         32.4960    15.6480    -2.7630 hc         1 5ZQ       0.082200
     47 H16         32.0600    11.7540    -4.9210 h1         1 5ZQ       0.071700
     48 H15         32.9400    12.7540    -6.0910 h1         1 5ZQ       0.071700
     49 H17         29.8140    14.8960    -8.6160 h4         1 5ZQ       0.020100
     50 H18         27.6860    13.6710    -8.2590 ha         1 5ZQ       0.124000
     51 H21         29.7540    19.6170     1.9230 hc         1 5ZQ       0.065033
     52 H22         28.2910    19.0490     1.0910 hc         1 5ZQ       0.065033
     53 H23         28.9150    18.1640     2.4850 hc         1 5ZQ       0.065033
     54 H8          25.0860    18.4180    -4.5300 ha         1 5ZQ       0.131500
     55 H14         32.6840    14.6240    -4.6830 hn         1 5ZQ       0.327500
     56 C15         31.7630    13.6440    -3.1600 c          1 5ZQ       0.601100
     57 C1          24.9460    14.6020     0.7520 c3         1 5ZQ      -0.021800
@<TRIPOS>BOND
     1     1     5 2   
     2     1     9 1   
     3     2    10 ar  
     4     2    19 ar  
     5     3    24 1   
     6     3    33 1   
     7     3    34 1   
     8     3    35 1   
     9     4     5 1   
    10     4    13 2   
    11     4    24 1   
    12     5     6 1   
    13     6     7 ar  
    14     6    16 ar  
    15     7    25 ar  
    16     7    36 1   
    17     8    15 ar  
    18     8    25 ar  
    19     8    32 1   
    20     9    17 1   
    21     9    22 1   
    22     9    37 1   
    23    10    12 ar  
    24    10    18 1   
    25    11    12 ar  
    26    11    20 ar  
    27    11    38 1   
    28    12    39 1   
    29    13    27 1   
    30    13    31 1   
    31    14    23 1   
    32    14    27 1   
    33    14    29 2   
    34    15    16 ar  
    35    15    43 1   
    36    16    44 1   
    37    17    45 1   
    38    17    46 1   
    39    17    56 1   
    40    18    26 1   
    41    18    47 1   
    42    18    48 1   
    43    19    20 ar  
    44    19    49 1   
    45    20    50 1   
    46    21    24 2   
    47    21    31 1   
    48    21    57 1   
    49    22    27 1   
    50    22    28 2   
    51    23    51 1   
    52    23    52 1   
    53    23    53 1   
    54    25    54 1   
    55    26    55 1   
    56    26    56 1   
    57    28    29 1   
    58    30    56 2   
    59    40    57 1   
    60    41    57 1   
    61    42    57 1   
@<TRIPOS>SUBSTRUCTURE
     1 5ZQ         1 TEMP              0 ****  ****    0 ROOT
