@<TRIPOS>MOLECULE
5ZQ
   57    61     1     0     0
SMALL
No Charge or Current Charge


@<TRIPOS>ATOM
      1 N1          29.8540    15.3960    -2.8850 n2         1 5ZQ      -0.576900
      2 N3          30.3920    13.6090    -7.2870 nb         1 5ZQ      -0.669000
      3 C4          26.1180    14.0790    -2.3720 c3         1 5ZQ      -0.031800
      4 C5          27.9070    15.7000    -1.4860 cc         1 5ZQ      -0.205900
      5 C6          28.6120    15.7570    -2.7810 ce         1 5ZQ       0.553500
      6 C7          27.9410    16.4200    -3.9550 ca         1 5ZQ      -0.135900
      7 C8          26.7110    17.1040    -3.8040 ca         1 5ZQ      -0.067000
      8 C10         26.7040    17.6870    -6.1670 ca         1 5ZQ       0.134000
      9 C13         30.7130    15.1850    -1.7050 c3         1 5ZQ       0.102200
     10 C17         30.4950    13.0220    -6.0690 ca         1 5ZQ       0.311300
     11 C20         28.0820    12.8480    -5.8470 ca         1 5ZQ      -0.077000
     12 C21         29.3660    12.6320    -5.3200 ca         1 5ZQ      -0.134000
     13 C22         28.2580    16.3310    -0.3140 cd         1 5ZQ      -0.116200
     14 C24         29.9360    17.8890     0.6750 cc         1 5ZQ       0.416800
     15 C11         27.9330    17.0330    -6.3310 ca         1 5ZQ      -0.112500
     16 C12         28.5520    16.4110    -5.2330 ca         1 5ZQ      -0.067000
     17 C14         32.1290    14.7950    -2.1950 c3         1 5ZQ      -0.130400
     18 C16         31.9040    12.8400    -5.5060 c3         1 5ZQ       0.056700
     19 C18         29.1540    13.8150    -7.7920 ca         1 5ZQ       0.328900
     20 C19         27.9800    13.4530    -7.1090 ca         1 5ZQ      -0.164000
     21 C2          26.2020    15.0370     0.0070 cd         1 5ZQ      -0.199300
     22 C23         30.6740    16.4020    -0.7860 cc         1 5ZQ       0.395800
     23 C25         29.0500    18.7500     1.5290 c3         1 5ZQ      -0.127400
     24 C3          26.7150    14.9270    -1.2730 cc         1 5ZQ      -0.060300
     25 C9          26.0960    17.7270    -4.9040 ca         1 5ZQ      -0.112500
     26 N2          32.1980    13.8120    -4.4400 ns         1 5ZQ      -0.490900
     27 N4          29.5370    16.8870    -0.1830 na         1 5ZQ      -0.267800
     28 N5          31.7120    17.1000    -0.3420 nd         1 5ZQ      -0.339000
     29 N6          31.2480    18.0380     0.5570 nd         1 5ZQ      -0.352000
     30 O1          31.8940    12.4330    -2.6510 o          1 5ZQ      -0.626100
     31 S1          27.1800    16.0790     1.0550 ss         1 5ZQ       0.237000
     32 Cl1         25.9310    18.4640    -7.5420 cl         1 5ZQ      -0.209000
     33 H5          26.8920    13.6730    -3.0330 hc         1 5ZQ       0.051033
     34 H6          25.5690    13.2240    -1.9600 hc         1 5ZQ       0.051033
     35 H4          25.4180    14.6610    -2.9820 hc         1 5ZQ       0.051033
     36 H7          26.2220    17.1640    -2.8340 ha         1 5ZQ       0.132000
     37 H11         30.3270    14.3400    -1.1180 h1         1 5ZQ       0.088700
     38 H19         27.1930    12.5570    -5.2920 ha         1 5ZQ       0.121000
     39 H20         29.4910    12.1760    -4.3420 ha         1 5ZQ       0.138000
     40 H3          24.7100    14.7560     1.5510 hc         1 5ZQ       0.051700
     41 H1          24.1020    14.5410    -0.0960 hc         1 5ZQ       0.051700
     42 H2          25.1110    13.2870     0.6470 hc         1 5ZQ       0.051700
     43 H9          28.4080    17.0090    -7.3080 ha         1 5ZQ       0.131500
     44 H10         29.5040    15.9080    -5.3890 ha         1 5ZQ       0.132000
     45 H13         32.7490    14.5610    -1.3230 hc         1 5ZQ       0.082200
     46 H12         32.5550    15.6420    -2.7460 hc         1 5ZQ       0.082200
     47 H16         32.0100    11.8180    -5.1210 h1         1 5ZQ       0.071700
     48 H15         32.6420    12.9670    -6.3090 h1         1 5ZQ       0.071700
     49 H17         29.1010    14.2890    -8.7720 h4         1 5ZQ       0.020100
     50 H18         27.0090    13.6440    -7.5570 ha         1 5ZQ       0.124000
     51 H21         29.5510    19.6900     1.7860 hc         1 5ZQ       0.065033
     52 H22         28.1210    19.0000     1.0040 hc         1 5ZQ       0.065033
     53 H23         28.7960    18.2380     2.4640 hc         1 5ZQ       0.065033
     54 H8          25.1480    18.2430    -4.7770 ha         1 5ZQ       0.131500
     55 H14         32.3240    14.7820    -4.7050 hn         1 5ZQ       0.327500
     56 C15         32.0580    13.5610    -3.0930 c          1 5ZQ       0.601100
     57 C1          24.9660    14.3700     0.5570 c3         1 5ZQ      -0.021800
@<TRIPOS>BOND
     1     1     5 2   
     2     1     9 1   
     3     2    10 ar  
     4     2    19 ar  
     5     3    24 1   
     6     3    33 1   
     7     3    34 1   
     8     3    35 1   
     9     4     5 1   
    10     4    13 2   
    11     4    24 1   
    12     5     6 1   
    13     6     7 ar  
    14     6    16 ar  
    15     7    25 ar  
    16     7    36 1   
    17     8    15 ar  
    18     8    25 ar  
    19     8    32 1   
    20     9    17 1   
    21     9    22 1   
    22     9    37 1   
    23    10    12 ar  
    24    10    18 1   
    25    11    12 ar  
    26    11    20 ar  
    27    11    38 1   
    28    12    39 1   
    29    13    27 1   
    30    13    31 1   
    31    14    23 1   
    32    14    27 1   
    33    14    29 2   
    34    15    16 ar  
    35    15    43 1   
    36    16    44 1   
    37    17    45 1   
    38    17    46 1   
    39    17    56 1   
    40    18    26 1   
    41    18    47 1   
    42    18    48 1   
    43    19    20 ar  
    44    19    49 1   
    45    20    50 1   
    46    21    24 2   
    47    21    31 1   
    48    21    57 1   
    49    22    27 1   
    50    22    28 2   
    51    23    51 1   
    52    23    52 1   
    53    23    53 1   
    54    25    54 1   
    55    26    55 1   
    56    26    56 1   
    57    28    29 1   
    58    30    56 2   
    59    40    57 1   
    60    41    57 1   
    61    42    57 1   
@<TRIPOS>SUBSTRUCTURE
     1 5ZQ         1 TEMP              0 ****  ****    0 ROOT
