@<TRIPOS>MOLECULE
5ZR
   33    33     1     0     0
SMALL
abcg2


@<TRIPOS>ATOM
      1 C10         16.9980    39.3740    19.6050 c3         1 5ZR      -0.071400
      2 C11         17.6880    40.6580    20.0500 c3         1 5ZR      -0.074400
      3 C12         18.7470    41.1280    19.0600 c3         1 5ZR      -0.072400
      4 C13         19.5710    42.3220    19.5350 c3         1 5ZR      -0.072400
      5 C14         18.7750    43.6090    19.7180 c3         1 5ZR      -0.076400
      6 C02         13.8400    35.9950    19.0120 cc         1 5ZR       0.652300
      7 N03         14.6810    35.4260    19.8050 nd         1 5ZR      -0.663000
      8 C04         15.4880    36.3420    20.4490 cd         1 5ZR       0.280500
      9 C05         16.5470    35.8340    21.4160 c          1 5ZR       0.626500
     10 O06         17.3860    36.6660    21.8190 o          1 5ZR      -0.702500
     11 O07         16.4830    34.6300    21.7190 o          1 5ZR      -0.702500
     12 C08         15.2450    37.6500    20.1490 cc         1 5ZR      -0.187300
     13 C09         15.9010    38.9240    20.5700 c3         1 5ZR       0.018900
     14 C15         19.6540    44.7860    20.1200 c3         1 5ZR      -0.088100
     15 S16         13.9430    37.7310    18.9930 ss         1 5ZR      -0.272400
     16 H1          16.5720    39.5160    18.6070 hc         1 5ZR       0.043200
     17 H2          17.7390    38.5740    19.5140 hc         1 5ZR       0.043200
     18 H3          18.1510    40.4980    21.0300 hc         1 5ZR       0.034200
     19 H4          16.9340    41.4380    20.1940 hc         1 5ZR       0.034200
     20 H5          18.2680    41.3760    18.1060 hc         1 5ZR       0.034700
     21 H6          19.4270    40.2960    18.8490 hc         1 5ZR       0.034700
     22 H7          20.0650    42.0670    20.4790 hc         1 5ZR       0.031700
     23 H8          20.3750    42.5060    18.8140 hc         1 5ZR       0.031700
     24 H9          18.2530    43.8450    18.7850 hc         1 5ZR       0.037700
     25 H10         17.9970    43.4650    20.4720 hc         1 5ZR       0.037700
     26 H11         12.5760    35.7780    17.4360 hn         1 5ZR       0.446500
     27 H12         13.0610    34.3530    18.1760 hn         1 5ZR       0.446500
     28 H14         16.3250    38.7870    21.5630 hc         1 5ZR       0.053700
     29 H15         15.1490    39.7160    20.6510 hc         1 5ZR       0.053700
     30 H16         19.0730    45.7010    20.2390 hc         1 5ZR       0.025033
     31 H17         20.1620    44.5910    21.0670 hc         1 5ZR       0.025033
     32 H18         20.4230    44.9770    19.3690 hc         1 5ZR       0.025033
     33 N01         12.8840    35.3400    18.2900 nv         1 5ZR      -1.035900
@<TRIPOS>BOND
     1     1     2 1   
     2     1    13 1   
     3     1    16 1   
     4     1    17 1   
     5     2     3 1   
     6     2    18 1   
     7     2    19 1   
     8     3     4 1   
     9     3    20 1   
    10     3    21 1   
    11     4     5 1   
    12     4    22 1   
    13     4    23 1   
    14     5    14 1   
    15     5    24 1   
    16     5    25 1   
    17     6     7 2   
    18     6    15 1   
    19     6    33 1   
    20     7     8 1   
    21     8     9 1   
    22     8    12 2   
    23     9    10 1   
    24     9    11 1   
    25    12    13 1   
    26    12    15 1   
    27    13    28 1   
    28    13    29 1   
    29    14    30 1   
    30    14    31 1   
    31    14    32 1   
    32    26    33 1   
    33    27    33 1   
@<TRIPOS>SUBSTRUCTURE
     1 5ZR         1 TEMP              0 ****  ****    0 ROOT
