@<TRIPOS>MOLECULE
5ZR
   33    33     1     0     0
SMALL
No Charge or Current Charge


@<TRIPOS>ATOM
      1 C10         17.0260    39.3200    19.6540 c3         1 5ZR      -0.071400
      2 C11         17.7010    40.6330    20.1110 c3         1 5ZR      -0.074400
      3 C12         18.8700    41.0610    19.1940 c3         1 5ZR      -0.072400
      4 C13         19.6270    42.3260    19.6670 c3         1 5ZR      -0.072400
      5 C14         18.7870    43.6240    19.6400 c3         1 5ZR      -0.076400
      6 C02         13.7090    36.0480    19.0490 cc         1 5ZR       0.652300
      7 N03         14.6120    35.3830    19.7050 nd         1 5ZR      -0.663000
      8 C04         15.5040    36.2730    20.3370 cd         1 5ZR       0.280500
      9 C05         16.7000    35.8240    21.1970 c          1 5ZR       0.626500
     10 O06         17.4470    36.6440    21.7180 o          1 5ZR      -0.702500
     11 O07         16.8910    34.6210    21.3510 o          1 5ZR      -0.702500
     12 C08         15.1860    37.6170    20.0910 cc         1 5ZR      -0.187300
     13 C09         15.8530    38.8910    20.5610 c3         1 5ZR       0.018900
     14 C15         19.5990    44.8730    20.0320 c3         1 5ZR      -0.088100
     15 S16         13.7810    37.7680    19.0650 ss         1 5ZR      -0.272400
     16 H1          16.6560    39.4440    18.6280 hc         1 5ZR       0.043200
     17 H2          17.7750    38.5190    19.6270 hc         1 5ZR       0.043200
     18 H3          18.0730    40.5080    21.1360 hc         1 5ZR       0.034200
     19 H4          16.9450    41.4260    20.1380 hc         1 5ZR       0.034200
     20 H5          18.4940    41.2250    18.1770 hc         1 5ZR       0.034700
     21 H6          19.5890    40.2340    19.1310 hc         1 5ZR       0.034700
     22 H7          20.0080    42.1590    20.6820 hc         1 5ZR       0.031700
     23 H8          20.5040    42.4620    19.0220 hc         1 5ZR       0.031700
     24 H9          18.3730    43.7690    18.6340 hc         1 5ZR       0.037700
     25 H10         17.9380    43.5310    20.3270 hc         1 5ZR       0.037700
     26 H11         12.2870    35.8810    17.6440 hn         1 5ZR       0.446500
     27 H12         12.9670    34.3950    18.2070 hn         1 5ZR       0.446500
     28 H14         16.1910    38.8010    21.6000 hc         1 5ZR       0.053700
     29 H15         15.1120    39.7010    20.5720 hc         1 5ZR       0.053700
     30 H16         18.9640    45.7670    20.0020 hc         1 5ZR       0.025033
     31 H17         20.0000    44.7720    21.0480 hc         1 5ZR       0.025033
     32 H18         20.4370    45.0240    19.3410 hc         1 5ZR       0.025033
     33 N01         12.7760    35.3750    18.3720 nv         1 5ZR      -1.035900
@<TRIPOS>BOND
     1     1     2 1   
     2     1    13 1   
     3     1    16 1   
     4     1    17 1   
     5     2     3 1   
     6     2    18 1   
     7     2    19 1   
     8     3     4 1   
     9     3    20 1   
    10     3    21 1   
    11     4     5 1   
    12     4    22 1   
    13     4    23 1   
    14     5    14 1   
    15     5    24 1   
    16     5    25 1   
    17     6     7 2   
    18     6    15 1   
    19     6    33 1   
    20     7     8 1   
    21     8     9 1   
    22     8    12 2   
    23     9    10 1   
    24     9    11 1   
    25    12    13 1   
    26    12    15 1   
    27    13    28 1   
    28    13    29 1   
    29    14    30 1   
    30    14    31 1   
    31    14    32 1   
    32    26    33 1   
    33    27    33 1   
@<TRIPOS>SUBSTRUCTURE
     1 5ZR         1 TEMP              0 ****  ****    0 ROOT
