@<TRIPOS>MOLECULE
5ZS
   41    41     1     0     0
SMALL
abcg2


@<TRIPOS>ATOM
      1 N1         171.5250   138.7130   162.1730 n3         1 5ZS      -0.621600
      2 C2         172.0440   138.4110   163.4980 c5         1 5ZS       0.052500
      3 C3         170.7950   137.9510   164.2640 c5         1 5ZS      -0.059400
      4 C4         169.6310   138.6910   163.5830 c5         1 5ZS      -0.086400
      5 C5         170.2930   139.4380   162.4220 c5         1 5ZS       0.167800
      6 C6         172.4670   139.4490   161.3570 c3         1 5ZS       0.197800
      7 C1         173.1600   137.3520   163.5870 c          1 5ZS       0.708000
      8 C10        170.0850   137.1320   158.1410 c3         1 5ZS       0.186800
      9 C11        168.6940   136.5810   158.4340 c3         1 5ZS      -0.057400
     10 C12        168.5580   135.6440   159.6400 c3         1 5ZS       0.042300
     11 C13        169.6070   134.5120   159.5850 c          1 5ZS       0.691000
     12 C7         172.0200   139.7900   159.9380 c3         1 5ZS      -0.031400
     13 C8         171.8270   138.6430   158.9360 c3         1 5ZS       0.068500
     14 C9         173.1210   137.7960   158.8120 c          1 5ZS       0.719000
     15 N2         170.6390   137.8760   159.2510 n7         1 5ZS      -0.778400
     16 O1         173.3800   136.6290   162.5980 o          1 5ZS      -0.716000
     17 O2         173.7220   137.2920   164.7010 o          1 5ZS      -0.716000
     18 O3         173.0580   136.5690   159.0100 o          1 5ZS      -0.725000
     19 O4         174.1440   138.4460   158.5030 o          1 5ZS      -0.725000
     20 O5         170.4380   134.5080   160.5210 o          1 5ZS      -0.718000
     21 O6         169.5410   133.7210   158.6280 o          1 5ZS      -0.718000
     22 O7         168.6440   136.3240   160.8690 oh         1 5ZS      -0.723000
     23 H2         172.4160   139.3380   163.9780 h1         1 5ZS      -0.031300
     24 H3         170.6670   136.8700   164.1670 hc         1 5ZS       0.030700
     25 H4         170.8760   138.1700   165.3280 hc         1 5ZS       0.030700
     26 H5         169.1230   139.3810   164.2560 hc         1 5ZS       0.011700
     27 H6         168.8820   137.9900   163.2170 hc         1 5ZS       0.011700
     28 H7         170.4970   140.4840   162.7140 h1         1 5ZS      -0.007800
     29 H8         169.6570   139.4750   161.5360 h1         1 5ZS      -0.007800
     30 H9         173.3960   138.8790   161.3090 h1         1 5ZS       0.020700
     31 H10        172.7230   140.4060   161.8520 h1         1 5ZS       0.020700
     32 H11        170.7600   136.3120   157.8880 h1         1 5ZS       0.010200
     33 H12        170.0140   137.7490   157.2250 h1         1 5ZS       0.010200
     34 H13        167.9910   137.4130   158.5590 hc         1 5ZS      -0.013300
     35 H14        168.3560   136.0400   157.5460 hc         1 5ZS      -0.013300
     36 H15        167.5630   135.1820   159.5720 h1         1 5ZS      -0.020300
     37 H16        172.7850   140.4510   159.5270 hc         1 5ZS      -0.011800
     38 H17        171.1050   140.3920   159.9650 hc         1 5ZS      -0.011800
     39 H18        171.7100   139.1380   157.9510 h1         1 5ZS      -0.052300
     40 H19        169.9270   138.5140   159.5830 hn         1 5ZS       0.357000
     41 H24        169.5090   136.0370   161.2090 ho         1 5ZS       0.507000
@<TRIPOS>BOND
     1     1     2 1   
     2     1     5 1   
     3     1     6 1   
     4     2     3 1   
     5     2     7 1   
     6     2    23 1   
     7     3     4 1   
     8     3    24 1   
     9     3    25 1   
    10     4     5 1   
    11     4    26 1   
    12     4    27 1   
    13     5    28 1   
    14     5    29 1   
    15     6    12 1   
    16     6    30 1   
    17     6    31 1   
    18     7    16 1   
    19     7    17 1   
    20     8     9 1   
    21     8    15 1   
    22     8    32 1   
    23     8    33 1   
    24     9    10 1   
    25     9    34 1   
    26     9    35 1   
    27    10    11 1   
    28    10    22 1   
    29    10    36 1   
    30    11    20 1   
    31    11    21 1   
    32    12    13 1   
    33    12    37 1   
    34    12    38 1   
    35    13    14 1   
    36    13    15 1   
    37    13    39 1   
    38    14    18 1   
    39    14    19 1   
    40    15    40 1   
    41    22    41 1   
@<TRIPOS>SUBSTRUCTURE
     1 5ZS         1 TEMP              0 ****  ****    0 ROOT
