@<TRIPOS>MOLECULE
5ZS
   41    41     1     0     0
SMALL
No Charge or Current Charge


@<TRIPOS>ATOM
      1 N1         171.4790   138.8340   162.3270 n3         1 5ZS      -0.621600
      2 C2         171.8740   138.5030   163.7310 c5         1 5ZS       0.052500
      3 C3         170.5020   138.0140   164.2860 c5         1 5ZS      -0.059400
      4 C4         169.4900   139.0050   163.6310 c5         1 5ZS      -0.086400
      5 C5         170.3140   139.7240   162.5210 c5         1 5ZS       0.167800
      6 C6         172.5690   139.3660   161.4710 c3         1 5ZS       0.197800
      7 C1         173.0250   137.4210   163.9400 c          1 5ZS       0.708000
      8 C10        169.9870   137.2260   158.1870 c3         1 5ZS       0.186800
      9 C11        168.6920   136.5070   158.6410 c3         1 5ZS      -0.057400
     10 C12        168.9050   135.2850   159.5740 c3         1 5ZS       0.042300
     11 C13        169.3820   134.0020   158.7740 c          1 5ZS       0.691000
     12 C7         172.1860   139.7830   160.0210 c3         1 5ZS      -0.031400
     13 C8         171.8900   138.6530   158.9930 c3         1 5ZS       0.068500
     14 C9         173.1680   137.7500   158.7170 c          1 5ZS       0.719000
     15 N2         170.6210   137.9260   159.3220 n7         1 5ZS      -0.778400
     16 O1         172.7550   136.2320   164.0720 o          1 5ZS      -0.716000
     17 O2         174.1810   137.8160   164.0460 o          1 5ZS      -0.716000
     18 O3         173.4300   136.8190   159.4690 o          1 5ZS      -0.725000
     19 O4         173.8170   137.9720   157.7000 o          1 5ZS      -0.725000
     20 O5         170.5340   133.9420   158.3600 o          1 5ZS      -0.718000
     21 O6         168.5910   133.0740   158.6560 o          1 5ZS      -0.718000
     22 O7         169.7850   135.6820   160.6520 oh         1 5ZS      -0.723000
     23 H2         172.1800   139.4210   164.2550 h1         1 5ZS      -0.031300
     24 H3         170.2750   136.9880   163.9740 hc         1 5ZS       0.030700
     25 H4         170.4640   138.0380   165.3810 hc         1 5ZS       0.030700
     26 H5         169.0940   139.7250   164.3550 hc         1 5ZS       0.011700
     27 H6         168.6320   138.4680   163.2110 hc         1 5ZS       0.011700
     28 H7         170.6380   140.7170   162.8610 h1         1 5ZS      -0.007800
     29 H8         169.7290   139.8530   161.6010 h1         1 5ZS      -0.007800
     30 H9         173.3860   138.6360   161.4170 h1         1 5ZS       0.020700
     31 H10        172.9870   140.2570   161.9610 h1         1 5ZS       0.020700
     32 H11        170.6800   136.5020   157.7410 h1         1 5ZS       0.010200
     33 H12        169.7250   137.9540   157.4080 h1         1 5ZS       0.010200
     34 H13        168.0420   137.2340   159.1440 hc         1 5ZS      -0.013300
     35 H14        168.1420   136.1750   157.7520 hc         1 5ZS      -0.013300
     36 H15        167.9240   135.0380   160.0040 h1         1 5ZS      -0.020300
     37 H16        173.0240   140.3680   159.6230 hc         1 5ZS      -0.011800
     38 H17        171.3390   140.4810   160.0460 hc         1 5ZS      -0.011800
     39 H18        171.6880   139.1900   158.0540 h1         1 5ZS      -0.052300
     40 H19        169.9540   138.6240   159.6650 hn         1 5ZS       0.357000
     41 H24        170.2680   136.4810   160.2860 ho         1 5ZS       0.507000
@<TRIPOS>BOND
     1     1     2 1   
     2     1     5 1   
     3     1     6 1   
     4     2     3 1   
     5     2     7 1   
     6     2    23 1   
     7     3     4 1   
     8     3    24 1   
     9     3    25 1   
    10     4     5 1   
    11     4    26 1   
    12     4    27 1   
    13     5    28 1   
    14     5    29 1   
    15     6    12 1   
    16     6    30 1   
    17     6    31 1   
    18     7    16 1   
    19     7    17 1   
    20     8     9 1   
    21     8    15 1   
    22     8    32 1   
    23     8    33 1   
    24     9    10 1   
    25     9    34 1   
    26     9    35 1   
    27    10    11 1   
    28    10    22 1   
    29    10    36 1   
    30    11    20 1   
    31    11    21 1   
    32    12    13 1   
    33    12    37 1   
    34    12    38 1   
    35    13    14 1   
    36    13    15 1   
    37    13    39 1   
    38    14    18 1   
    39    14    19 1   
    40    15    40 1   
    41    22    41 1   
@<TRIPOS>SUBSTRUCTURE
     1 5ZS         1 TEMP              0 ****  ****    0 ROOT
