@<TRIPOS>MOLECULE
5ZT
   42    44     1     0     0
SMALL
bcc


@<TRIPOS>ATOM
      1 C2          14.0760    -0.4250    18.0440 c          1 5ZT       0.592800
      2 C6          10.7480    -1.3530    18.6480 c6         1 5ZT       0.171800
      3 C5          12.1830    -1.6860    19.0220 c6         1 5ZT       0.092500
      4 N7          10.2740    -0.2160    19.4080 nh         1 5ZT      -0.645000
      5 C8          11.1270     0.9520    19.2290 c6         1 5ZT       0.171800
      6 C1          14.5330    -1.6660    17.3190 ce         1 5ZT       0.452300
      7 C10          8.8970     0.0140    19.4450 ca         1 5ZT       0.154600
      8 C11          8.3650     0.9840    20.3030 ca         1 5ZT      -0.164000
      9 C12          7.0040     1.2140    20.3670 ca         1 5ZT      -0.069000
     10 C13          6.0940     0.4880    19.6020 ca         1 5ZT      -0.102300
     11 C14          6.6370    -0.4780    18.7670 ca         1 5ZT       0.057400
     12 C15          7.9990    -0.7180    18.6660 ca         1 5ZT      -0.183000
     13 C17         15.7050    -3.6520    17.3460 c          1 5ZT       0.844900
     14 C20         14.8920    -2.8790    15.1550 c          1 5ZT       0.727500
     15 C22         14.3370    -1.6690    15.8450 c6         1 5ZT      -0.274700
     16 C23          4.6090     0.7200    19.6710 c3         1 5ZT       0.192700
     17 C9          12.5580     0.6320    19.6150 c6         1 5ZT       0.092500
     18 N16         15.1420    -2.5480    17.9990 nf         1 5ZT      -0.602100
     19 N19         15.5420    -3.7600    15.9780 ns         1 5ZT      -0.632500
     20 N4          13.0320    -0.5190    18.8690 n          1 5ZT      -0.451800
     21 O18         16.3080    -4.4880    17.9670 o          1 5ZT      -0.539500
     22 O21         14.7870    -3.0700    13.9690 o          1 5ZT      -0.575500
     23 O24          4.3400     1.7770    20.5520 oh         1 5ZT      -0.598800
     24 O3          14.7280     0.5840    17.8250 o          1 5ZT      -0.579100
     25 CL25         5.5760    -1.4350    17.7740 cl         1 5ZT      -0.122400
     26 H1          10.6870    -1.1820    17.5620 h1         1 5ZT       0.050700
     27 H2          10.1420    -2.2290    18.8780 h1         1 5ZT       0.050700
     28 H3          12.2280    -2.0210    20.0610 h1         1 5ZT       0.071950
     29 H4          12.5250    -2.5080    18.3980 h1         1 5ZT       0.071950
     30 H5          11.0980     1.3010    18.1870 h1         1 5ZT       0.050700
     31 H6          10.7850     1.7720    19.8560 h1         1 5ZT       0.050700
     32 H7           9.0170     1.5570    20.9490 ha         1 5ZT       0.139000
     33 H8           6.6400     1.9720    21.0470 ha         1 5ZT       0.156000
     34 H9           8.3420    -1.4660    17.9660 ha         1 5ZT       0.145000
     35 H10         14.7970    -0.7730    15.4170 hc         1 5ZT       0.116700
     36 H11         13.2680    -1.5810    15.6200 hc         1 5ZT       0.116700
     37 H12          4.2340     0.9310    18.6610 h1         1 5ZT       0.035700
     38 H13          4.1170    -0.2090    19.9910 h1         1 5ZT       0.035700
     39 H14         12.6160     0.4040    20.6830 h1         1 5ZT       0.071950
     40 H15         13.1960     1.4890    19.4160 h1         1 5ZT       0.071950
     41 H16         15.9460    -4.5820    15.5430 hn         1 5ZT       0.342500
     42 H17          3.3870     1.8950    20.5950 ho         1 5ZT       0.411000
@<TRIPOS>BOND
     1     1     6 1   
     2     1    20 1   
     3     1    24 2   
     4     2     3 1   
     5     2     4 1   
     6     2    26 1   
     7     2    27 1   
     8     3    20 1   
     9     3    28 1   
    10     3    29 1   
    11     4     5 1   
    12     4     7 1   
    13     5    17 1   
    14     5    30 1   
    15     5    31 1   
    16     6    15 1   
    17     6    18 2   
    18     7     8 ar  
    19     7    12 ar  
    20     8     9 ar  
    21     8    32 1   
    22     9    10 ar  
    23     9    33 1   
    24    10    11 ar  
    25    10    16 1   
    26    11    12 ar  
    27    11    25 1   
    28    12    34 1   
    29    13    18 1   
    30    13    19 1   
    31    13    21 2   
    32    14    15 1   
    33    14    19 1   
    34    14    22 2   
    35    15    35 1   
    36    15    36 1   
    37    16    23 1   
    38    16    37 1   
    39    16    38 1   
    40    17    20 1   
    41    17    39 1   
    42    17    40 1   
    43    19    41 1   
    44    23    42 1   
@<TRIPOS>SUBSTRUCTURE
     1 5ZT         1 TEMP              0 ****  ****    0 ROOT
