@<TRIPOS>MOLECULE
5ZT
   42    44     1     0     0
SMALL
No Charge or Current Charge


@<TRIPOS>ATOM
      1 C2          14.0840    -0.4140    17.5980 c          1 5ZT       0.525800
      2 C6          10.2160    -1.2040    17.8170 c6         1 5ZT       0.171800
      3 C5          11.7440    -1.4890    17.8370 c6         1 5ZT       0.092500
      4 N7           9.8530    -0.0380    18.6560 nh         1 5ZT      -0.783400
      5 C8          10.5660     1.1750    18.1970 c6         1 5ZT       0.171800
      6 C1          14.7880    -1.7740    17.3710 ce         1 5ZT       0.452300
      7 C10          8.5730     0.0830    19.2470 ca         1 5ZT       0.293000
      8 C11          8.4200     0.8490    20.4150 ca         1 5ZT      -0.146000
      9 C12          7.1620     0.9870    21.0250 ca         1 5ZT      -0.051000
     10 C13          6.0300     0.3560    20.4730 ca         1 5ZT      -0.102300
     11 C14          6.1820    -0.4120    19.2970 ca         1 5ZT       0.149000
     12 C15          7.4430    -0.5450    18.6940 ca         1 5ZT      -0.165000
     13 C17         14.8380    -4.1410    16.9510 c          1 5ZT       0.702400
     14 C20         16.6570    -2.8010    16.1270 c          1 5ZT       0.585000
     15 C22         16.2980    -1.7500    17.1460 c6         1 5ZT      -0.274700
     16 C23          4.6770     0.5200    21.1580 c3         1 5ZT       0.215900
     17 C9          12.1030     0.9960    18.2880 c6         1 5ZT       0.092500
     18 N16         14.2250    -2.9650    17.4200 nf         1 5ZT      -0.602100
     19 N19         16.0180    -3.9780    16.3090 ns         1 5ZT      -0.498500
     20 N4          12.6660    -0.3020    17.7740 n          1 5ZT      -0.384800
     21 O18         14.3160    -5.2310    17.0730 o          1 5ZT      -0.464000
     22 O21         17.3740    -2.5900    15.1650 o          1 5ZT      -0.500000
     23 O24          3.9840     1.6520    20.6190 oh         1 5ZT      -0.661000
     24 O3          14.7440     0.6240    17.6360 o          1 5ZT      -0.579100
     25 Cl25         4.8080    -1.2210    18.5420 cl         1 5ZT      -0.214000
     26 H1           9.9050    -1.0200    16.7770 h1         1 5ZT       0.050700
     27 H2           9.6910    -2.1090    18.1580 h1         1 5ZT       0.050700
     28 H3          11.9720    -2.0520    18.7530 h1         1 5ZT       0.071950
     29 H4          11.9390    -2.1510    16.9830 h1         1 5ZT       0.071950
     30 H5          10.2960     1.3910    17.1520 h1         1 5ZT       0.050700
     31 H6          10.2780     2.0550    18.7910 h1         1 5ZT       0.050700
     32 H7           9.2850     1.3340    20.8570 ha         1 5ZT       0.121000
     33 H8           7.0670     1.5850    21.9290 ha         1 5ZT       0.138000
     34 H9           7.5300    -1.1310    17.7850 ha         1 5ZT       0.127000
     35 H10         16.7360    -2.0680    18.1000 hc         1 5ZT       0.116700
     36 H11         16.7020    -0.7740    16.8540 hc         1 5ZT       0.116700
     37 H12          4.0800    -0.3930    21.0370 h1         1 5ZT       0.035700
     38 H13          4.8360     0.6540    22.2360 h1         1 5ZT       0.035700
     39 H14         12.3910     1.0910    19.3450 h1         1 5ZT       0.071950
     40 H15         12.5690     1.8390    17.7570 h1         1 5ZT       0.071950
     41 H16         16.3480    -4.7680    15.7780 hn         1 5ZT       0.342500
     42 H17          3.1220     1.7040    21.0870 ho         1 5ZT       0.450000
@<TRIPOS>BOND
     1     1     6 1   
     2     1    20 1   
     3     1    24 2   
     4     2     3 1   
     5     2     4 1   
     6     2    26 1   
     7     2    27 1   
     8     3    20 1   
     9     3    28 1   
    10     3    29 1   
    11     4     5 1   
    12     4     7 1   
    13     5    17 1   
    14     5    30 1   
    15     5    31 1   
    16     6    15 1   
    17     6    18 2   
    18     7     8 ar  
    19     7    12 ar  
    20     8     9 ar  
    21     8    32 1   
    22     9    10 ar  
    23     9    33 1   
    24    10    11 ar  
    25    10    16 1   
    26    11    12 ar  
    27    11    25 1   
    28    12    34 1   
    29    13    18 1   
    30    13    19 1   
    31    13    21 2   
    32    14    15 1   
    33    14    19 1   
    34    14    22 2   
    35    15    35 1   
    36    15    36 1   
    37    16    23 1   
    38    16    37 1   
    39    16    38 1   
    40    17    20 1   
    41    17    39 1   
    42    17    40 1   
    43    19    41 1   
    44    23    42 1   
@<TRIPOS>SUBSTRUCTURE
     1 5ZT         1 TEMP              0 ****  ****    0 ROOT
