@<TRIPOS>MOLECULE
5ZU
   22    23     1     0     0
SMALL
abcg2


@<TRIPOS>ATOM
      1 C13         14.3770     8.8850    44.0830 cc         1 5ZU       0.660300
      2 O01         16.5550     9.0540    40.0690 o          1 5ZU      -0.700500
      3 C02         16.2680     9.6960    41.1000 c          1 5ZU       0.627500
      4 O03         16.5110    10.8910    41.3320 o          1 5ZU      -0.700500
      5 C04         15.5360     8.9370    42.1990 cd         1 5ZU       0.290500
      6 C05         15.3920     7.5860    42.2810 cc         1 5ZU      -0.207300
      7 C06         15.8470     6.4700    41.3930 c3         1 5ZU       0.064200
      8 C07         16.4870     5.3500    42.1510 cc         1 5ZU      -0.165300
      9 C08         16.0520     4.0680    42.2970 cd         1 5ZU      -0.168000
     10 C09         16.9040     3.2760    43.1180 cd         1 5ZU      -0.137000
     11 C10         17.9740     3.9740    43.5830 cc         1 5ZU      -0.280000
     12 S11         17.9530     5.5970    43.0270 ss         1 5ZU       0.232000
     13 S12         14.4940     7.1860    43.7210 ss         1 5ZU      -0.248400
     14 N14         13.7740     9.3140    45.2250 nv         1 5ZU      -1.043900
     15 N15         14.9600     9.6540    43.2260 nd         1 5ZU      -0.668000
     16 H2          16.5240     6.8910    40.6530 hc         1 5ZU       0.085200
     17 H3          14.9980     6.0550    40.8400 hc         1 5ZU       0.085200
     18 H4          15.1440     3.7030    41.8350 ha         1 5ZU       0.124000
     19 H5          16.7240     2.2360    43.3500 ha         1 5ZU       0.113000
     20 H6          18.7710     3.6230    44.2210 h4         1 5ZU       0.133000
     21 H7          13.5450    10.2960    45.2360 hn         1 5ZU       0.452000
     22 H8          13.0490     8.7350    45.6170 hn         1 5ZU       0.452000
@<TRIPOS>BOND
     1     1    13 1   
     2     1    14 1   
     3     1    15 2   
     4     2     3 1   
     5     3     4 1   
     6     3     5 1   
     7     5     6 2   
     8     5    15 1   
     9     6     7 1   
    10     6    13 1   
    11     7     8 1   
    12     7    16 1   
    13     7    17 1   
    14     8     9 2   
    15     8    12 1   
    16     9    10 1   
    17     9    18 1   
    18    10    11 2   
    19    10    19 1   
    20    11    12 1   
    21    11    20 1   
    22    14    21 1   
    23    14    22 1   
@<TRIPOS>SUBSTRUCTURE
     1 5ZU         1 TEMP              0 ****  ****    0 ROOT
