@<TRIPOS>MOLECULE
5ZU
   22    23     1     0     0
SMALL
No Charge or Current Charge


@<TRIPOS>ATOM
      1 C13         14.5010     8.9280    44.1670 cc         1 5ZU       0.660300
      2 O01         16.2530     9.0210    39.8830 o          1 5ZU      -0.700500
      3 C02         15.6840     9.6740    40.7520 c          1 5ZU       0.627500
      4 O03         15.3750    10.8450    40.5510 o          1 5ZU      -0.700500
      5 C04         15.3340     9.0420    42.1120 cd         1 5ZU       0.290500
      6 C05         15.6510     7.7160    42.4440 cc         1 5ZU      -0.207300
      7 C06         16.3750     6.6720    41.6120 c3         1 5ZU       0.064200
      8 C07         16.7050     5.3820    42.3220 cc         1 5ZU      -0.165300
      9 C08         16.0910     4.1620    42.1840 cd         1 5ZU      -0.168000
     10 C09         16.6670     3.1410    42.9850 cd         1 5ZU      -0.137000
     11 C10         17.7310     3.5700    43.7350 cc         1 5ZU      -0.280000
     12 S11         18.0510     5.2810    43.4580 ss         1 5ZU       0.232000
     13 S12         15.0790     7.3100    44.0480 ss         1 5ZU      -0.248400
     14 N14         13.8700     9.3920    45.2480 nv         1 5ZU      -1.043900
     15 N15         14.6630     9.7200    43.1510 nd         1 5ZU      -0.668000
     16 H2          17.3140     7.0970    41.2370 hc         1 5ZU       0.085200
     17 H3          15.7750     6.4450    40.7210 hc         1 5ZU       0.085200
     18 H4          15.2430     3.9940    41.5270 ha         1 5ZU       0.124000
     19 H5          16.3020     2.1180    43.0000 ha         1 5ZU       0.113000
     20 H6          18.3520     3.0150    44.4260 h4         1 5ZU       0.133000
     21 H7          13.3440    10.2460    45.1110 hn         1 5ZU       0.452000
     22 H8          13.4790     8.7060    45.8820 hn         1 5ZU       0.452000
@<TRIPOS>BOND
     1     1    13 1   
     2     1    14 1   
     3     1    15 2   
     4     2     3 1   
     5     3     4 1   
     6     3     5 1   
     7     5     6 2   
     8     5    15 1   
     9     6     7 1   
    10     6    13 1   
    11     7     8 1   
    12     7    16 1   
    13     7    17 1   
    14     8     9 2   
    15     8    12 1   
    16     9    10 1   
    17     9    18 1   
    18    10    11 2   
    19    10    19 1   
    20    11    12 1   
    21    11    20 1   
    22    14    21 1   
    23    14    22 1   
@<TRIPOS>SUBSTRUCTURE
     1 5ZU         1 TEMP              0 ****  ****    0 ROOT
