@<TRIPOS>MOLECULE
5ZV
   69    73     1     0     0
SMALL
No Charge or Current Charge


@<TRIPOS>ATOM
      1 O7N         18.8360    26.7370    44.2990 o          1 5ZV      -0.643100
      2 C7N         18.1740    27.3810    45.0960 c          1 5ZV       0.598700
      3 N7N         17.8270    26.8010    46.2610 nt         1 5ZV      -0.573000
      4 C3N         17.7330    28.7990    44.8110 ca         1 5ZV      -0.146600
      5 C4N         18.0280    29.3790    43.5620 ca         1 5ZV       0.025000
      6 C5N         17.6860    30.7180    43.3240 ca         1 5ZV      -0.149000
      7 C6N         17.0010    31.4540    44.3060 ca         1 5ZV      -0.019300
      8 C2N         17.0560    29.5860    45.7730 ca         1 5ZV      -0.003000
      9 N1N         16.5510    30.8710    45.5000 na         1 5ZV       0.009300
     10 C1D         15.6070    31.5760    46.4070 c5         1 5ZV       0.258300
     11 C2D         14.1960    31.9370    45.8270 c5         1 5ZV       0.140300
     12 F2D         14.2010    32.2210    44.4560 f          1 5ZV      -0.246000
     13 C3D         13.4170    30.6320    46.1330 c5         1 5ZV       0.116300
     14 O3D         11.9930    30.7790    46.0200 oh         1 5ZV      -0.702000
     15 O4D         15.3090    30.7450    47.5690 os         1 5ZV      -0.389000
     16 C4D         13.8880    30.4340    47.5980 c5         1 5ZV       0.099300
     17 C5D         13.5890    29.0240    48.1830 c3         1 5ZV       0.229600
     18 O5D         14.2620    28.8610    49.4420 os         1 5ZV      -0.571400
     19 PN          15.4010    27.7340    49.5990 p5         1 5ZV       1.520800
     20 O1N         16.1850    28.0050    50.8390 o          1 5ZV      -0.843500
     21 O2N         16.2340    27.6680    48.3670 o          1 5ZV      -0.843500
     22 O3          14.4100    26.5230    49.7190 os         1 5ZV      -0.766800
     23 PA          15.1750    25.2410    50.2030 p5         1 5ZV       1.506800
     24 O1A         15.1970    25.1310    51.6900 o          1 5ZV      -0.827500
     25 O2A         16.5080    25.0030    49.5760 o          1 5ZV      -0.827500
     26 O5B         14.1080    24.1890    49.6130 os         1 5ZV      -0.612400
     27 C5B         14.0320    23.9180    48.2010 c3         1 5ZV       0.249600
     28 C4B         15.2260    23.0220    47.7450 c5         1 5ZV       0.081300
     29 O4B         14.7640    21.8560    47.0300 os         1 5ZV      -0.480000
     30 C1B         15.9330    21.3110    46.4020 c5         1 5ZV       0.272300
     31 C2B         16.5680    22.5750    45.7320 c5         1 5ZV       0.133300
     32 O2B         17.9830    22.5040    45.5700 oh         1 5ZV      -0.717000
     33 C3B         16.2640    23.7000    46.7780 c5         1 5ZV       0.125300
     34 O3B         17.4800    24.0810    47.4630 oh         1 5ZV      -0.799000
     35 N9A         15.5590    20.1810    45.5500 na         1 5ZV      -0.268300
     36 C8A         15.6840    20.1190    44.1560 cc         1 5ZV       0.435700
     37 N7A         15.2730    18.9280    43.6760 nd         1 5ZV      -0.579100
     38 C5A         14.8920    18.2330    44.8290 ca         1 5ZV      -0.096600
     39 C6A         14.3800    16.9250    44.9620 ca         1 5ZV       0.439900
     40 N6A         14.1710    16.1050    43.8970 nv         1 5ZV      -1.080900
     41 C4A         15.0610    18.9800    45.9690 ca         1 5ZV       0.142500
     42 N3A         14.7590    18.5020    47.1930 nb         1 5ZV      -0.200000
     43 C2A         14.2710    17.2390    47.2260 ca         1 5ZV       0.165900
     44 N1A         14.0620    16.4220    46.1650 nb         1 5ZV      -0.311000
     45 H1          18.0880    25.8390    46.4270 hn         1 5ZV       0.369500
     46 H2          17.2490    27.2720    46.9530 hn         1 5ZV       0.369500
     47 H3          18.5570    28.8140    42.7960 ha         1 5ZV       0.173000
     48 H4          17.9620    31.1900    42.3840 ha         1 5ZV       0.153000
     49 H5          16.7540    32.5040    44.1370 h4         1 5ZV       0.163000
     50 H6          16.9060    29.2210    46.7830 h4         1 5ZV       0.258000
     51 H7          16.1320    32.4860    46.7200 h2         1 5ZV       0.112700
     52 H8          13.7650    32.7990    46.3550 h1         1 5ZV       0.105700
     53 H9          13.7720    29.8060    45.4980 h1         1 5ZV       0.062700
     54 H10         11.7880    30.9540    45.0690 ho         1 5ZV       0.536000
     55 H11         13.3970    31.1680    48.2520 h1         1 5ZV       0.108700
     56 H12         13.8980    28.2620    47.4550 h1         1 5ZV       0.043700
     57 H13         12.5050    28.9210    48.3190 h1         1 5ZV       0.043700
     58 H16         14.0280    24.8530    47.6260 h1         1 5ZV       0.031200
     59 H17         13.0920    23.3980    47.9790 h1         1 5ZV       0.031200
     60 H18         15.7370    22.6530    48.6460 h1         1 5ZV       0.082700
     61 H19         16.6110    20.9090    47.1670 h2         1 5ZV       0.098700
     62 H20         16.0730    22.8080    44.7800 h1         1 5ZV       0.051700
     63 H21         18.2570    23.1180    46.3130 ho         1 5ZV       0.546000
     64 H22         15.8180    24.5700    46.2740 h1         1 5ZV       0.068700
     65 H23         17.1700    24.4880    48.3570 ho         1 5ZV       0.621000
     66 H24         16.0700    20.9400    43.5640 h5         1 5ZV       0.073800
     67 H25         13.5430    15.3160    44.0190 hn         1 5ZV       0.500500
     68 H26         14.1960    16.5330    42.9740 hn         1 5ZV       0.500500
     69 H27         14.0190    16.8390    48.2070 h5         1 5ZV       0.040100
@<TRIPOS>BOND
     1     1     2 2   
     2     2     3 1   
     3     2     4 1   
     4     3    45 1   
     5     3    46 1   
     6     4     5 ar  
     7     4     8 ar  
     8     5     6 ar  
     9     5    47 1   
    10     6     7 ar  
    11     6    48 1   
    12     7     9 2   
    13     7    49 1   
    14     8     9 1   
    15     8    50 1   
    16     9    10 1   
    17    10    11 1   
    18    10    15 1   
    19    10    51 1   
    20    11    12 1   
    21    11    13 1   
    22    11    52 1   
    23    13    14 1   
    24    13    16 1   
    25    13    53 1   
    26    14    54 1   
    27    15    16 1   
    28    16    17 1   
    29    16    55 1   
    30    17    18 1   
    31    17    56 1   
    32    17    57 1   
    33    18    19 1   
    34    19    20 1   
    35    19    21 1   
    36    19    22 1   
    37    22    23 1   
    38    23    24 1   
    39    23    25 1   
    40    23    26 1   
    41    26    27 1   
    42    27    28 1   
    43    27    58 1   
    44    27    59 1   
    45    28    29 1   
    46    28    33 1   
    47    28    60 1   
    48    29    30 1   
    49    30    31 1   
    50    30    35 1   
    51    30    61 1   
    52    31    32 1   
    53    31    33 1   
    54    31    62 1   
    55    32    63 1   
    56    33    34 1   
    57    33    64 1   
    58    34    65 1   
    59    35    36 1   
    60    35    41 1   
    61    36    37 2   
    62    36    66 1   
    63    37    38 1   
    64    38    39 ar  
    65    38    41 ar  
    66    39    40 1   
    67    39    44 ar  
    68    40    67 1   
    69    40    68 1   
    70    41    42 ar  
    71    42    43 ar  
    72    43    44 ar  
    73    43    69 1   
@<TRIPOS>SUBSTRUCTURE
     1 5ZV         1 TEMP              0 ****  ****    0 ROOT
