@<TRIPOS>MOLECULE
5ZV
   69    73     1     0     0
SMALL
abcg2


@<TRIPOS>ATOM
      1 O7N         15.7750    25.6490    43.3420 o          1 5ZV      -0.643100
      2 C7N         16.0220    26.3760    44.3050 c          1 5ZV       0.598700
      3 N7N         16.0690    25.9450    45.5680 nt         1 5ZV      -0.573000
      4 C3N         16.2760    27.8450    44.0570 ca         1 5ZV      -0.146600
      5 C4N         16.5150    28.2640    42.7510 ca         1 5ZV       0.025000
      6 C5N         16.7350    29.6080    42.4840 ca         1 5ZV      -0.149000
      7 C6N         16.6750    30.5140    43.5170 ca         1 5ZV      -0.019300
      8 C2N         16.2400    28.7960    45.0620 ca         1 5ZV      -0.003000
      9 N1N         16.4100    30.0950    44.7700 na         1 5ZV       0.009300
     10 C1D         16.3020    31.1490    45.8570 c5         1 5ZV       0.258300
     11 C2D         14.9950    31.9560    45.7330 c5         1 5ZV       0.140300
     12 F2D         14.5460    32.0770    44.4270 f          1 5ZV      -0.246000
     13 C3D         14.0250    31.1990    46.6170 c5         1 5ZV       0.116300
     14 O3D         13.0070    32.0610    47.0740 oh         1 5ZV      -0.702000
     15 O4D         16.2670    30.5630    47.1050 os         1 5ZV      -0.389000
     16 C4D         14.9500    30.6800    47.7240 c5         1 5ZV       0.099300
     17 C5D         14.5110    29.3570    48.3020 c3         1 5ZV       0.229600
     18 O5D         15.4150    28.9310    49.3190 os         1 5ZV      -0.571400
     19 PN          16.2260    27.5370    49.1650 p5         1 5ZV       1.520800
     20 O1N         17.0730    27.4140    50.3780 o          1 5ZV      -0.843500
     21 O2N         16.8310    27.4470    47.7950 o          1 5ZV      -0.843500
     22 O3          15.0230    26.4480    49.1470 os         1 5ZV      -0.766800
     23 PA          14.1280    25.7390    50.3040 p5         1 5ZV       1.506800
     24 O1A         13.2710    26.7280    51.0080 o          1 5ZV      -0.827500
     25 O2A         15.0090    24.8380    51.1240 o          1 5ZV      -0.827500
     26 O5B         13.1620    24.8600    49.3490 os         1 5ZV      -0.612400
     27 C5B         13.5740    24.1890    48.1550 c3         1 5ZV       0.249600
     28 C4B         14.5030    23.0120    48.4110 c5         1 5ZV       0.081300
     29 O4B         14.4120    22.1600    47.2560 os         1 5ZV      -0.480000
     30 C1B         15.6020    21.3900    47.2210 c5         1 5ZV       0.272300
     31 C2B         16.7160    22.3770    47.6010 c5         1 5ZV       0.133300
     32 O2B         17.8590    21.7500    48.1320 oh         1 5ZV      -0.717000
     33 C3B         16.0100    23.3290    48.5930 c5         1 5ZV       0.125300
     34 O3B         16.4710    23.0500    49.8980 oh         1 5ZV      -0.799000
     35 N9A         15.7280    20.7910    45.9200 na         1 5ZV      -0.268300
     36 C8A         15.8650    21.4370    44.7090 cc         1 5ZV       0.435700
     37 N7A         15.9100    20.6150    43.6910 nd         1 5ZV      -0.579100
     38 C5A         15.7930    19.3530    44.2520 ca         1 5ZV      -0.096600
     39 C6A         15.7690    18.0580    43.6990 ca         1 5ZV       0.439900
     40 N6A         15.8830    17.8230    42.3830 nv         1 5ZV      -1.080900
     41 C4A         15.6710    19.4440    45.6360 ca         1 5ZV       0.142500
     42 N3A         15.5310    18.4210    46.4850 nb         1 5ZV      -0.200000
     43 C2A         15.5200    17.2480    45.8530 ca         1 5ZV       0.165900
     44 N1A         15.6290    17.0140    44.5400 nb         1 5ZV      -0.311000
     45 H1          15.8840    24.9650    45.7200 hn         1 5ZV       0.369500
     46 H2          16.3350    26.5130    46.3820 hn         1 5ZV       0.369500
     47 H3          16.5330    27.5290    41.9590 ha         1 5ZV       0.173000
     48 H4          16.9480    29.9580    41.4850 ha         1 5ZV       0.153000
     49 H5          16.8320    31.5730    43.3810 h4         1 5ZV       0.163000
     50 H6          16.1130    28.5560    46.1070 h4         1 5ZV       0.258000
     51 H7          17.1950    31.7610    45.7420 h2         1 5ZV       0.112700
     52 H8          15.1630    32.9610    46.1220 h1         1 5ZV       0.105700
     53 H9          13.6050    30.3620    46.0480 h1         1 5ZV       0.062700
     54 H10         12.2610    31.5310    47.3840 ho         1 5ZV       0.536000
     55 H11         15.0310    31.4270    48.5160 h1         1 5ZV       0.108700
     56 H12         14.4180    28.6040    47.5180 h1         1 5ZV       0.043700
     57 H13         13.5240    29.4930    48.7530 h1         1 5ZV       0.043700
     58 H16         14.0380    24.9010    47.4720 h1         1 5ZV       0.031200
     59 H17         12.6590    23.8110    47.7010 h1         1 5ZV       0.031200
     60 H18         14.1630    22.4630    49.2960 h1         1 5ZV       0.082700
     61 H19         15.5680    20.5720    47.9460 h2         1 5ZV       0.098700
     62 H20         17.0180    22.9310    46.7110 h1         1 5ZV       0.051700
     63 H21         17.7870    21.8310    49.0980 ho         1 5ZV       0.546000
     64 H22         16.2160    24.3670    48.3320 h1         1 5ZV       0.068700
     65 H23         16.0040    23.7050    50.4860 ho         1 5ZV       0.621000
     66 H24         15.9170    22.5120    44.6470 h5         1 5ZV       0.073800
     67 H25         15.8330    16.8800    42.0360 hn         1 5ZV       0.500500
     68 H26         15.9630    18.5820    41.7290 hn         1 5ZV       0.500500
     69 H27         15.4070    16.3690    46.4780 h5         1 5ZV       0.040100
@<TRIPOS>BOND
     1     1     2 2   
     2     2     3 1   
     3     2     4 1   
     4     3    45 1   
     5     3    46 1   
     6     4     5 ar  
     7     4     8 ar  
     8     5     6 ar  
     9     5    47 1   
    10     6     7 ar  
    11     6    48 1   
    12     7     9 2   
    13     7    49 1   
    14     8     9 1   
    15     8    50 1   
    16     9    10 1   
    17    10    11 1   
    18    10    15 1   
    19    10    51 1   
    20    11    12 1   
    21    11    13 1   
    22    11    52 1   
    23    13    14 1   
    24    13    16 1   
    25    13    53 1   
    26    14    54 1   
    27    15    16 1   
    28    16    17 1   
    29    16    55 1   
    30    17    18 1   
    31    17    56 1   
    32    17    57 1   
    33    18    19 1   
    34    19    20 1   
    35    19    21 1   
    36    19    22 1   
    37    22    23 1   
    38    23    24 1   
    39    23    25 1   
    40    23    26 1   
    41    26    27 1   
    42    27    28 1   
    43    27    58 1   
    44    27    59 1   
    45    28    29 1   
    46    28    33 1   
    47    28    60 1   
    48    29    30 1   
    49    30    31 1   
    50    30    35 1   
    51    30    61 1   
    52    31    32 1   
    53    31    33 1   
    54    31    62 1   
    55    32    63 1   
    56    33    34 1   
    57    33    64 1   
    58    34    65 1   
    59    35    36 1   
    60    35    41 1   
    61    36    37 2   
    62    36    66 1   
    63    37    38 1   
    64    38    39 ar  
    65    38    41 ar  
    66    39    40 1   
    67    39    44 ar  
    68    40    67 1   
    69    40    68 1   
    70    41    42 ar  
    71    42    43 ar  
    72    43    44 ar  
    73    43    69 1   
@<TRIPOS>SUBSTRUCTURE
     1 5ZV         1 TEMP              0 ****  ****    0 ROOT
