@<TRIPOS>MOLECULE
5ZW
   38    40     1     0     0
SMALL
No Charge or Current Charge


@<TRIPOS>ATOM
      1 C1         -11.1980   -40.9670    17.5600 cc         1 5ZW       0.056400
      2 C2         -11.6940   -39.9060    18.5170 c          1 5ZW       0.601300
      3 C5         -14.0390   -40.7990    18.7720 c6         1 5ZW       0.092500
      4 C6         -15.5120   -40.4590    18.4180 c6         1 5ZW       0.179800
      5 C8         -15.0580   -38.0610    18.8520 c6         1 5ZW       0.179800
      6 C9         -13.5790   -38.4000    19.1890 c6         1 5ZW       0.092500
      7 C10        -17.3360   -38.9850    19.3770 ca         1 5ZW       0.290000
      8 O3         -10.9240   -39.2590    19.2210 o          1 5ZW      -0.581100
      9 C11        -18.3530   -39.5630    18.5880 ca         1 5ZW      -0.152000
     10 C12        -19.7090   -39.3210    18.8800 ca         1 5ZW      -0.070500
     11 C13        -20.0580   -38.5010    19.9640 ca         1 5ZW       0.094000
     12 C14        -19.0550   -37.9220    20.7570 ca         1 5ZW      -0.070500
     13 C15        -17.7000   -38.1650    20.4620 ca         1 5ZW      -0.152000
     14 C18         -9.2340   -42.2760    16.9040 c          1 5ZW       0.618000
     15 C21        -11.3070   -42.5330    15.6320 c          1 5ZW       0.586200
     16 C23        -11.9120   -41.5340    16.5210 cd         1 5ZW      -0.359200
     17 N17         -9.8690   -41.3560    17.6820 ns         1 5ZW      -0.505600
     18 N20        -10.0080   -42.8150    15.9270 ns         1 5ZW      -0.469500
     19 N4         -13.0860   -39.6610    18.5590 n          1 5ZW      -0.400800
     20 N7         -15.9680   -39.2150    19.1020 nh         1 5ZW      -0.793400
     21 O19         -8.0710   -42.5860    17.0720 o          1 5ZW      -0.543000
     22 O22        -11.8950   -43.0650    14.7070 o          1 5ZW      -0.521000
     23 Cl16       -21.7520   -38.1990    20.3300 cl         1 5ZW      -0.211000
     24 H1         -14.0060   -41.0680    19.8380 h1         1 5ZW       0.070200
     25 H2         -13.7380   -41.7010    18.2290 h1         1 5ZW       0.070200
     26 H3         -15.6000   -40.3430    17.3280 h1         1 5ZW       0.053450
     27 H4         -16.1430   -41.3110    18.7120 h1         1 5ZW       0.053450
     28 H5         -15.1190   -37.7680    17.7940 h1         1 5ZW       0.053450
     29 H6         -15.3580   -37.1860    19.4460 h1         1 5ZW       0.053450
     30 H7         -13.4780   -38.4880    20.2800 h1         1 5ZW       0.070200
     31 H8         -12.9460   -37.5580    18.8720 h1         1 5ZW       0.070200
     32 H9         -18.1010   -40.1900    17.7390 ha         1 5ZW       0.118500
     33 H10        -20.4870   -39.7670    18.2650 ha         1 5ZW       0.130000
     34 H11        -19.3250   -37.2900    21.5990 ha         1 5ZW       0.130000
     35 H12        -16.9300   -37.7230    21.0880 ha         1 5ZW       0.118500
     36 H13        -12.9280   -41.2590    16.2670 ha         1 5ZW       0.225000
     37 H14         -9.2900   -40.9390    18.4060 hn         1 5ZW       0.474000
     38 H15         -9.5590   -43.4970    15.3370 hn         1 5ZW       0.347500
@<TRIPOS>BOND
     1     1     2 1   
     2     1    16 2   
     3     1    17 1   
     4     2     8 2   
     5     2    19 1   
     6     3     4 1   
     7     3    19 1   
     8     3    24 1   
     9     3    25 1   
    10     4    20 1   
    11     4    26 1   
    12     4    27 1   
    13     5     6 1   
    14     5    20 1   
    15     5    28 1   
    16     5    29 1   
    17     6    19 1   
    18     6    30 1   
    19     6    31 1   
    20     7     9 ar  
    21     7    13 ar  
    22     7    20 1   
    23     9    10 ar  
    24     9    32 1   
    25    10    11 ar  
    26    10    33 1   
    27    11    12 ar  
    28    11    23 1   
    29    12    13 ar  
    30    12    34 1   
    31    13    35 1   
    32    14    17 1   
    33    14    18 1   
    34    14    21 2   
    35    15    16 1   
    36    15    18 1   
    37    15    22 2   
    38    16    36 1   
    39    17    37 1   
    40    18    38 1   
@<TRIPOS>SUBSTRUCTURE
     1 5ZW         1 TEMP              0 ****  ****    0 ROOT
