@<TRIPOS>MOLECULE
5ZW
   38    40     1     0     0
SMALL
abcg2


@<TRIPOS>ATOM
      1 C1         -11.4480   -40.8390    17.4460 cc         1 5ZW       0.056400
      2 C2         -11.7990   -39.7010    18.3730 c          1 5ZW       0.601300
      3 C5         -13.8850   -40.8770    19.1020 c6         1 5ZW       0.092500
      4 C6         -15.2890   -40.4990    18.6530 c6         1 5ZW       0.179800
      5 C8         -14.8510   -38.2010    19.2940 c6         1 5ZW       0.179800
      6 C9         -13.4510   -38.5740    19.7560 c6         1 5ZW       0.092500
      7 C10        -17.1400   -39.0650    19.3750 ca         1 5ZW       0.290000
      8 O3         -10.9790   -38.7870    18.4690 o          1 5ZW      -0.581100
      9 C11        -18.0400   -39.8130    18.6030 ca         1 5ZW      -0.152000
     10 C12        -19.4060   -39.5530    18.6350 ca         1 5ZW      -0.070500
     11 C13        -19.8910   -38.5280    19.4280 ca         1 5ZW       0.094000
     12 C14        -19.0240   -37.7630    20.1980 ca         1 5ZW      -0.070500
     13 C15        -17.6660   -38.0320    20.1720 ca         1 5ZW      -0.152000
     14 C18         -9.6890   -42.4050    16.8930 c          1 5ZW       0.618000
     15 C21        -11.6830   -42.1640    15.4360 c          1 5ZW       0.586200
     16 C23        -12.1750   -41.1640    16.3570 cd         1 5ZW      -0.359200
     17 N17        -10.2460   -41.4390    17.7020 ns         1 5ZW      -0.505600
     18 N20        -10.4540   -42.7190    15.7930 ns         1 5ZW      -0.469500
     19 N4         -12.9840   -39.7320    18.9980 n          1 5ZW      -0.400800
     20 N7         -15.7660   -39.3420    19.4010 nh         1 5ZW      -0.793400
     21 O19         -8.6170   -42.9320    17.1350 o          1 5ZW      -0.543000
     22 O22        -12.2530   -42.5330    14.4160 o          1 5ZW      -0.521000
     23 CL16       -21.6130   -38.1900    19.4650 cl         1 5ZW      -0.211000
     24 H1         -13.9110   -41.1850    20.1510 h1         1 5ZW       0.070200
     25 H2         -13.5130   -41.7070    18.5120 h1         1 5ZW       0.070200
     26 H3         -15.2900   -40.3090    17.5700 h1         1 5ZW       0.053450
     27 H4         -15.9410   -41.3490    18.8500 h1         1 5ZW       0.053450
     28 H5         -14.8060   -37.8520    18.2520 h1         1 5ZW       0.053450
     29 H6         -15.2070   -37.3790    19.9070 h1         1 5ZW       0.053450
     30 H7         -13.4600   -38.8270    20.8190 h1         1 5ZW       0.070200
     31 H8         -12.7670   -37.7470    19.5930 h1         1 5ZW       0.070200
     32 H9         -17.6900   -40.6050    17.9580 ha         1 5ZW       0.118500
     33 H10        -20.0810   -40.1440    18.0300 ha         1 5ZW       0.130000
     34 H11        -19.4060   -36.9680    20.8240 ha         1 5ZW       0.130000
     35 H12        -17.0140   -37.4460    20.8030 ha         1 5ZW       0.118500
     36 H13        -13.1190   -40.6880    16.1450 ha         1 5ZW       0.225000
     37 H14         -9.6980   -41.1520    18.5010 hn         1 5ZW       0.474000
     38 H15        -10.0730   -43.4260    15.1760 hn         1 5ZW       0.347500
@<TRIPOS>BOND
     1     1     2 1   
     2     1    16 2   
     3     1    17 1   
     4     2     8 2   
     5     2    19 1   
     6     3     4 1   
     7     3    19 1   
     8     3    24 1   
     9     3    25 1   
    10     4    20 1   
    11     4    26 1   
    12     4    27 1   
    13     5     6 1   
    14     5    20 1   
    15     5    28 1   
    16     5    29 1   
    17     6    19 1   
    18     6    30 1   
    19     6    31 1   
    20     7     9 ar  
    21     7    13 ar  
    22     7    20 1   
    23     9    10 ar  
    24     9    32 1   
    25    10    11 ar  
    26    10    33 1   
    27    11    12 ar  
    28    11    23 1   
    29    12    13 ar  
    30    12    34 1   
    31    13    35 1   
    32    14    17 1   
    33    14    18 1   
    34    14    21 2   
    35    15    16 1   
    36    15    18 1   
    37    15    22 2   
    38    16    36 1   
    39    17    37 1   
    40    18    38 1   
@<TRIPOS>SUBSTRUCTURE
     1 5ZW         1 TEMP              0 ****  ****    0 ROOT
