@<TRIPOS>MOLECULE
5ZX
   28    29     1     0     0
SMALL
No Charge or Current Charge


@<TRIPOS>ATOM
      1 C13         18.3000   -13.5710    -3.8800 ca         1 5ZX      -0.108000
      2 C15         21.5310   -13.4210    -9.9080 cc         1 5ZX       0.658300
      3 C12         17.9260   -13.4110    -2.5340 ca         1 5ZX      -0.121500
      4 O01         20.0430    -9.5140    -9.8750 o          1 5ZX      -0.703500
      5 O03         19.5990    -9.7720    -7.8080 o          1 5ZX      -0.703500
      6 C04         20.6170   -11.6360    -8.9530 cd         1 5ZX       0.282500
      7 C05         20.6770   -12.5180    -7.8630 cc         1 5ZX      -0.196300
      8 C06         20.2490   -12.3340    -6.4230 c3         1 5ZX       0.025900
      9 C07         18.7510   -12.6270    -6.2000 c3         1 5ZX      -0.036100
     10 C08         18.3410   -12.4580    -4.7430 ca         1 5ZX      -0.056300
     11 C09         18.0070   -11.1840    -4.2450 ca         1 5ZX      -0.108000
     12 C10         17.6330   -11.0240    -2.8990 ca         1 5ZX      -0.121500
     13 C11         17.5920   -12.1370    -2.0430 ca         1 5ZX      -0.132000
     14 S14         21.3690   -14.0550    -8.3160 ss         1 5ZX      -0.268400
     15 N17         21.1350   -12.2050   -10.1350 nd         1 5ZX      -0.664000
     16 H1          18.5600   -14.5600    -4.2510 ha         1 5ZX       0.124000
     17 H2          17.8960   -14.2730    -1.8720 ha         1 5ZX       0.099000
     18 H4          20.8280   -13.0140    -5.7850 hc         1 5ZX       0.053700
     19 H5          20.4940   -11.3290    -6.0630 hc         1 5ZX       0.053700
     20 H6          18.1530   -11.9640    -6.8360 hc         1 5ZX       0.058700
     21 H7          18.5340   -13.6480    -6.5390 hc         1 5ZX       0.058700
     22 H8          18.0400   -10.3160    -4.9010 ha         1 5ZX       0.124000
     23 H9          17.3760   -10.0370    -2.5200 ha         1 5ZX       0.099000
     24 H10         17.3030   -12.0130    -1.0020 ha         1 5ZX       0.095000
     25 H11         22.3540   -13.5810   -11.7150 hn         1 5ZX       0.449500
     26 H12         22.6350   -14.9210   -10.6610 hn         1 5ZX       0.449500
     27 C02         20.0450   -10.2090    -8.8630 c          1 5ZX       0.628500
     28 N16         22.0640   -14.1220   -10.9100 nv         1 5ZX      -1.039900
@<TRIPOS>BOND
     1     1     3 ar  
     2     1    10 ar  
     3     1    16 1   
     4     2    14 1   
     5     2    15 2   
     6     2    28 1   
     7     3    13 ar  
     8     3    17 1   
     9     4    27 1   
    10     5    27 1   
    11     6     7 2   
    12     6    15 1   
    13     6    27 1   
    14     7     8 1   
    15     7    14 1   
    16     8     9 1   
    17     8    18 1   
    18     8    19 1   
    19     9    10 1   
    20     9    20 1   
    21     9    21 1   
    22    10    11 ar  
    23    11    12 ar  
    24    11    22 1   
    25    12    13 ar  
    26    12    23 1   
    27    13    24 1   
    28    25    28 1   
    29    26    28 1   
@<TRIPOS>SUBSTRUCTURE
     1 5ZX         1 TEMP              0 ****  ****    0 ROOT
