@<TRIPOS>MOLECULE
5ZX
   28    29     1     0     0
SMALL
abcg2


@<TRIPOS>ATOM
      1 C13         18.3270   -13.5680    -3.8520 ca         1 5ZX      -0.108000
      2 C15         21.4940   -13.3500    -9.9330 cc         1 5ZX       0.658300
      3 C12         17.9600   -13.3690    -2.5270 ca         1 5ZX      -0.121500
      4 O01         20.3710    -9.4910    -9.8160 o          1 5ZX      -0.703500
      5 O03         19.5410    -9.8300    -7.7720 o          1 5ZX      -0.703500
      6 C04         20.6420   -11.6170    -8.8520 cd         1 5ZX       0.282500
      7 C05         20.6900   -12.4730    -7.7930 cc         1 5ZX      -0.196300
      8 C06         20.2540   -12.3340    -6.3720 c3         1 5ZX       0.025900
      9 C07         18.7750   -12.7080    -6.1810 c3         1 5ZX      -0.036100
     10 C08         18.3340   -12.5110    -4.7590 ca         1 5ZX      -0.056300
     11 C09         17.9660   -11.2450    -4.3050 ca         1 5ZX      -0.108000
     12 C10         17.5980   -11.0410    -2.9830 ca         1 5ZX      -0.121500
     13 C11         17.5940   -12.1040    -2.0880 ca         1 5ZX      -0.132000
     14 S14         21.3320   -14.0010    -8.3270 ss         1 5ZX      -0.268400
     15 N17         21.1100   -12.1240   -10.0460 nd         1 5ZX      -0.664000
     16 H1          18.6080   -14.5590    -4.1890 ha         1 5ZX       0.124000
     17 H2          17.9570   -14.2040    -1.8380 ha         1 5ZX       0.099000
     18 H4          20.8690   -12.9670    -5.7260 hc         1 5ZX       0.053700
     19 H5          20.4050   -11.3060    -6.0500 hc         1 5ZX       0.053700
     20 H6          18.1790   -12.0860    -6.8490 hc         1 5ZX       0.058700
     21 H7          18.6220   -13.7470    -6.4830 hc         1 5ZX       0.058700
     22 H8          17.9690   -10.4110    -4.9980 ha         1 5ZX       0.124000
     23 H9          17.3120   -10.0510    -2.6500 ha         1 5ZX       0.099000
     24 H10         17.3070   -11.9470    -1.0560 ha         1 5ZX       0.095000
     25 H11         22.2250   -13.6090   -11.7790 hn         1 5ZX       0.449500
     26 H12         22.5440   -14.8920   -10.7440 hn         1 5ZX       0.449500
     27 C02         20.1400   -10.1820    -8.8100 c          1 5ZX       0.628500
     28 N16         21.9280   -14.1270   -10.9660 nv         1 5ZX      -1.039900
@<TRIPOS>BOND
     1     1     3 ar  
     2     1    10 ar  
     3     1    16 1   
     4     2    14 1   
     5     2    15 2   
     6     2    28 1   
     7     3    13 ar  
     8     3    17 1   
     9     4    27 1   
    10     5    27 1   
    11     6     7 2   
    12     6    15 1   
    13     6    27 1   
    14     7     8 1   
    15     7    14 1   
    16     8     9 1   
    17     8    18 1   
    18     8    19 1   
    19     9    10 1   
    20     9    20 1   
    21     9    21 1   
    22    10    11 ar  
    23    11    12 ar  
    24    11    22 1   
    25    12    13 ar  
    26    12    23 1   
    27    13    24 1   
    28    25    28 1   
    29    26    28 1   
@<TRIPOS>SUBSTRUCTURE
     1 5ZX         1 TEMP              0 ****  ****    0 ROOT
